api/pglib_opf_case6468_rte__api.m
%%%%%%%%%%%%%%%%%%%%%%%%%%%%%%%%%%%%%%%%%%%%%%%%%%%%%%%%%%%%%%%%%%%%%%%%%%%
%%%%                                                                  %%%%%
%%%%    IEEE PES Power Grid Library - Optimal Power Flow - v18.08     %%%%%
%%%%          (https://github.com/power-grid-lib/pglib-opf)           %%%%%
%%%%             Benchmark Group - Active Power Increase              %%%%%
%%%%                         31 - July - 2018                         %%%%%
%%%%                                                                  %%%%%
%%%%%%%%%%%%%%%%%%%%%%%%%%%%%%%%%%%%%%%%%%%%%%%%%%%%%%%%%%%%%%%%%%%%%%%%%%%
function mpc = pglib_opf_case6468_rte__api
mpc.version = '2';
mpc.baseMVA = 100.0;

%% bus data
%	bus_i	type	Pd	Qd	Gs	Bs	area	Vm	Va	baseKV	zone	Vmax	Vmin
mpc.bus = [
	1	 1	 0.0	 0.0	 0.0	 0.0	 1	    0.94444	    0.00000	 45.0	 1	    1.00000	    0.88889;
	2	 1	 0.0	 0.0	 0.0	 0.0	 1	    1.00000	    0.00000	 63.0	 1	    1.06349	    0.93651;
	3	 1	 11.70	 -1.20	 0.0	 0.0	 1	    1.01588	    0.00000	 63.0	 1	    1.07937	    0.95238;
	4	 1	 33.80	 -8.20	 0.0	 0.0	 1	    1.01111	    0.00000	 90.0	 1	    1.08889	    0.93333;
	5	 1	 11.00	 -0.90	 0.0	 0.0	 1	    1.00794	    0.00000	 63.0	 1	    1.06349	    0.95238;
	6	 1	 15.64	 4.30	 0.0	 0.0	 1	    1.00000	    0.00000	 63.0	 1	    1.07937	    0.92063;
	7	 1	 1.00	 -0.20	 0.0	 0.0	 1	    1.00000	    0.00000	 63.0	 1	    1.07937	    0.92063;
	8	 1	 0.40	 -4.40	 0.0	 0.0	 1	    0.98889	    0.00000	 225.0	 1	    1.08889	    0.88889;
	9	 1	 16.90	 0.00	 0.0	 0.0	 1	    1.00000	    0.00000	 63.0	 1	    1.06349	    0.93651;
	10	 1	 0.0	 0.0	 0.0	 0.0	 1	    1.00000	    0.00000	 90.0	 1	    1.07778	    0.92222;
	11	 1	 20.00	 -3.10	 0.0	 0.0	 1	    1.00000	    0.00000	 90.0	 1	    1.07778	    0.92222;
	12	 1	 0.0	 0.0	 0.0	 0.0	 1	    1.01588	    0.00000	 63.0	 1	    1.07937	    0.95238;
	13	 1	 0.0	 0.0	 0.0	 0.0	 1	    1.07673	    0.00000	 380.0	 1	    1.10263	    1.05084;
	14	 1	 44.53	 3.60	 0.0	 0.0	 1	    1.02778	    0.00000	 90.0	 1	    1.07778	    0.97778;
	15	 1	 0.0	 0.0	 0.0	 0.0	 1	    1.00000	    0.00000	 63.0	 1	    1.07937	    0.92063;
	16	 1	 12.40	 1.50	 0.0	 0.0	 1	    1.00000	    0.00000	 63.0	 1	    1.07937	    0.92063;
	17	 1	 11.20	 -0.60	 0.0	 0.0	 1	    1.02222	    0.00000	 90.0	 1	    1.06667	    0.97778;
	18	 1	 0.0	 0.0	 0.0	 0.0	 1	    0.94444	    0.00000	 45.0	 1	    1.00000	    0.88889;
	19	 1	 1.00	 0.00	 0.0	 0.0	 1	    1.00000	    0.00000	 63.0	 1	    1.06349	    0.93651;
	20	 1	 2.30	 -18.30	 0.0	 0.0	 1	    0.94444	    0.00000	 45.0	 1	    1.00000	    0.88889;
	21	 1	 6.50	 -1.90	 0.0	 0.0	 1	    1.02222	    0.00000	 90.0	 1	    1.06667	    0.97778;
	22	 1	 18.29	 1.40	 0.0	 0.0	 1	    1.01588	    0.00000	 63.0	 1	    1.07937	    0.95238;
	23	 1	 35.02	 4.60	 0.0	 0.0	 1	    1.00000	    0.00000	 63.0	 1	    1.06349	    0.93651;
	24	 1	 9.70	 -2.80	 0.0	 0.0	 1	    1.03333	    0.00000	 90.0	 1	    1.11111	    0.95556;
	25	 1	 46.50	 -6.10	 0.0	 0.0	 1	    1.02222	    0.00000	 90.0	 1	    1.10000	    0.94444;
	26	 1	 24.67	 4.70	 0.0	 0.0	 1	    1.02222	    0.00000	 90.0	 1	    1.06667	    0.97778;
	27	 1	 0.0	 0.0	 0.0	 0.0	 1	    1.04444	    0.00000	 225.0	 1	    1.08444	    1.00444;
	28	 1	 0.48	 0.90	 0.0	 0.0	 1	    1.01588	    0.00000	 63.0	 1	    1.07937	    0.95238;
	29	 1	 63.42	 1.80	 0.0	 0.0	 1	    1.01587	    0.00000	 63.0	 1	    1.06349	    0.96825;
	30	 1	 29.80	 -1.90	 0.0	 0.0	 1	    1.01111	    0.00000	 90.0	 1	    1.08889	    0.93333;
	31	 1	 0.0	 0.0	 0.0	 0.0	 1	    1.00000	    0.00000	 63.0	 1	    1.06349	    0.93651;
	32	 1	 0.0	 0.0	 0.0	 0.0	 1	    1.00334	    0.00000	 150.0	 1	    1.10667	    0.90000;
	33	 1	 0.0	 0.0	 0.0	 0.0	 1	    1.01111	    0.00000	 225.0	 1	    1.08889	    0.93333;
	34	 1	 0.0	 0.0	 0.0	 0.0	 1	    1.01111	    0.00000	 225.0	 1	    1.08889	    0.93333;
	35	 1	 0.0	 0.0	 0.0	 0.0	 1	    1.07237	    0.00000	 380.0	 1	    1.10526	    1.03947;
	36	 1	 0.0	 0.0	 0.0	 0.0	 1	    1.07237	    0.00000	 380.0	 1	    1.10526	    1.03947;
	37	 1	 2.77	 4.40	 0.0	 0.0	 1	    1.00000	    0.00000	 63.0	 1	    1.07937	    0.92063;
	38	 1	 7.00	 -1.00	 0.0	 0.0	 1	    1.01587	    0.00000	 63.0	 1	    1.09524	    0.93651;
	39	 1	 35.00	 -6.80	 0.0	 0.0	 1	    1.02778	    0.00000	 90.0	 1	    1.07778	    0.97778;
	40	 1	 38.15	 0.50	 0.0	 0.0	 1	    1.02778	    0.00000	 90.0	 1	    1.07778	    0.97778;
	41	 1	 0.0	 0.0	 0.0	 0.0	 1	    1.04819	    0.00000	 225.0	 1	    1.09194	    1.00444;
	42	 1	 0.0	 0.0	 0.0	 0.0	 1	    1.04150	    0.00000	 63.0	 1	    1.13061	    0.95238;
	43	 1	 4.09	 2.80	 0.0	 0.0	 1	    1.02778	    0.00000	 90.0	 1	    1.07778	    0.97778;
	44	 1	 12.40	 0.00	 0.0	 0.0	 1	    1.00794	    0.00000	 63.0	 1	    1.06349	    0.95238;
	45	 1	 3.61	 2.10	 0.0	 0.0	 1	    1.02222	    0.00000	 90.0	 1	    1.06667	    0.97778;
	46	 1	 0.0	 0.0	 0.0	 0.0	 1	    1.00000	    0.00000	 63.0	 1	    1.06349	    0.93651;
	47	 2	 0.0	 0.0	 0.0	 0.0	 1	    1.00000	    0.00000	 63.0	 1	    1.06349	    0.93651;
	48	 1	 40.92	 1.30	 0.0	 0.0	 1	    1.00000	    0.00000	 90.0	 1	    1.07778	    0.92222;
	49	 1	 6.90	 -2.50	 0.0	 0.0	 1	    1.00000	    0.00000	 63.0	 1	    1.06349	    0.93651;
	50	 1	 0.0	 0.0	 0.0	 0.0	 1	    1.00543	    0.00000	 63.0	 1	    1.07436	    0.93651;
	51	 1	 0.0	 0.0	 0.0	 0.0	 1	    1.01111	    0.00000	 225.0	 1	    1.08889	    0.93333;
	52	 1	 6.98	 2.50	 0.0	 0.0	 1	    1.02222	    0.00000	 90.0	 1	    1.06667	    0.97778;
	53	 1	 0.20	 -0.30	 0.0	 0.0	 1	    1.00000	    0.00000	 63.0	 1	    1.04762	    0.95238;
	54	 1	 0.90	 -0.80	 0.0	 0.0	 1	    1.02222	    0.00000	 90.0	 1	    1.06667	    0.97778;
	55	 1	 36.22	 5.40	 0.0	 0.0	 1	    1.04666	    0.00000	 225.0	 1	    1.08889	    1.00444;
	56	 1	 50.79	 6.30	 0.0	 0.0	 1	    1.04666	    0.00000	 225.0	 1	    1.08889	    1.00444;
	57	 2	 0.0	 0.0	 0.0	 0.0	 1	    1.00000	    0.00000	 63.0	 1	    1.07937	    0.92063;
	58	 1	 129.49	 28.80	 0.0	 0.0	 1	    1.04666	    0.00000	 225.0	 1	    1.08889	    1.00444;
	59	 1	 6.26	 1.40	 0.0	 0.0	 1	    1.01588	    0.00000	 63.0	 1	    1.07937	    0.95238;
	60	 1	 0.0	 0.0	 0.0	 0.0	 1	    1.01588	    0.00000	 63.0	 1	    1.07937	    0.95238;
	61	 1	 35.62	 5.10	 0.0	 0.0	 1	    1.01588	    0.00000	 63.0	 1	    1.07937	    0.95238;
	62	 1	 0.0	 0.0	 0.0	 0.0	 1	    1.01588	    0.00000	 63.0	 1	    1.07937	    0.95238;
	63	 1	 15.40	 2.00	 0.0	 0.0	 1	    1.01588	    0.00000	 63.0	 1	    1.07937	    0.95238;
	64	 1	 47.20	 -0.70	 0.0	 0.0	 1	    0.98889	    0.00000	 225.0	 1	    1.08889	    0.88889;
	65	 1	 12.03	 2.90	 0.0	 0.0	 1	    1.01588	    0.00000	 63.0	 1	    1.07937	    0.95238;
	66	 1	 11.10	 -9.30	 0.0	 0.0	 1	    1.00000	    0.00000	 63.0	 1	    1.06349	    0.93651;
	67	 1	 0.0	 0.0	 0.0	 0.0	 1	    1.00000	    0.00000	 63.0	 1	    1.07937	    0.92063;
	68	 1	 41.10	 -6.80	 0.0	 0.0	 1	    1.00000	    0.00000	 63.0	 1	    1.06349	    0.93651;
	69	 1	 14.40	 -3.20	 0.0	 0.0	 1	    1.00794	    0.00000	 63.0	 1	    1.06349	    0.95238;
	70	 1	 10.47	 0.60	 0.0	 0.0	 1	    1.01588	    0.00000	 63.0	 1	    1.07937	    0.95238;
	71	 1	 67.15	 10.70	 0.0	 0.0	 1	    1.00000	    0.00000	 63.0	 1	    1.04762	    0.95238;
	72	 1	 0.0	 0.0	 0.0	 0.0	 1	    1.04666	    0.00000	 225.0	 1	    1.08889	    1.00444;
	73	 1	 0.0	 0.0	 0.0	 0.0	 1	    1.04666	    0.00000	 225.0	 1	    1.08889	    1.00444;
	74	 1	 37.10	 -8.70	 0.0	 0.0	 1	    0.98889	    0.00000	 225.0	 1	    1.08889	    0.88889;
	75	 1	 23.23	 1.40	 0.0	 0.0	 1	    1.02301	    0.00000	 90.0	 1	    1.06825	    0.97778;
	76	 1	 7.58	 3.20	 0.0	 0.0	 1	    1.03778	    0.00000	 225.0	 1	    1.08889	    0.98667;
	77	 1	 28.90	 -5.20	 0.0	 0.0	 1	    1.00000	    0.00000	 63.0	 1	    1.06349	    0.93651;
	78	 1	 0.0	 0.0	 0.0	 0.0	 1	    1.00000	    0.00000	 63.0	 1	    1.07937	    0.92063;
	79	 1	 0.0	 0.0	 0.0	 0.0	 1	    1.00000	    0.00000	 63.0	 1	    1.04762	    0.95238;
	80	 1	 26.10	 -1.00	 0.0	 0.0	 1	    1.04666	    0.00000	 225.0	 1	    1.08889	    1.00444;
	81	 1	 31.41	 3.50	 0.0	 0.0	 1	    1.04666	    0.00000	 225.0	 1	    1.08889	    1.00444;
	82	 1	 9.80	 -3.20	 0.0	 0.0	 1	    1.00000	    0.00000	 63.0	 1	    1.06349	    0.93651;
	83	 1	 102.29	 46.20	 0.0	 0.0	 1	    1.04666	    0.00000	 225.0	 1	    1.08889	    1.00444;
	84	 1	 -1.00	 -1.10	 0.0	 0.0	 1	    1.00000	    0.00000	 63.0	 1	    1.06349	    0.93651;
	85	 1	 2.30	 -0.80	 0.0	 0.0	 1	    1.00000	    0.00000	 63.0	 1	    1.06349	    0.93651;
	86	 1	 30.30	 -3.70	 0.0	 0.0	 1	    1.02222	    0.00000	 90.0	 1	    1.06667	    0.97778;
	87	 1	 0.0	 0.0	 0.0	 0.0	 1	    1.01588	    0.00000	 63.0	 1	    1.07937	    0.95238;
	88	 1	 11.50	 -3.80	 0.0	 0.0	 1	    1.00000	    0.00000	 63.0	 1	    1.06349	    0.93651;
	89	 1	 17.70	 -4.90	 0.0	 0.0	 1	    1.02778	    0.00000	 90.0	 1	    1.07778	    0.97778;
	90	 1	 0.70	 -0.30	 0.0	 0.0	 1	    0.94444	    0.00000	 45.0	 1	    1.00000	    0.88889;
	91	 1	 0.0	 0.0	 0.0	 0.0	 1	    0.94444	    0.00000	 45.0	 1	    1.00000	    0.88889;
	92	 1	 29.73	 0.40	 0.0	 0.0	 1	    1.01587	    0.00000	 63.0	 1	    1.06349	    0.96825;
	93	 1	 2.30	 -2.50	 0.0	 0.0	 1	    0.94444	    0.00000	 45.0	 1	    1.00000	    0.88889;
	94	 1	 13.00	 -4.90	 0.0	 0.0	 1	    1.02222	    0.00000	 90.0	 1	    1.06667	    0.97778;
	95	 1	 45.73	 3.80	 0.0	 0.0	 1	    1.02222	    0.00000	 90.0	 1	    1.06667	    0.97778;
	96	 1	 0.90	 -0.60	 0.0	 0.0	 1	    1.00000	    0.00000	 63.0	 1	    1.06349	    0.93651;
	97	 1	 56.56	 0.80	 0.0	 0.0	 1	    1.00000	    0.00000	 63.0	 1	    1.07937	    0.92063;
	98	 1	 6.60	 -2.20	 0.0	 0.0	 1	    1.01588	    0.00000	 63.0	 1	    1.07937	    0.95238;
	99	 1	 26.36	 3.20	 0.0	 0.0	 1	    1.01588	    0.00000	 63.0	 1	    1.07937	    0.95238;
	100	 1	 55.72	 7.40	 0.0	 0.0	 1	    1.00000	    0.00000	 63.0	 1	    1.06349	    0.93651;
	101	 1	 14.00	 -1.50	 0.0	 0.0	 1	    1.00000	    0.00000	 63.0	 1	    1.06349	    0.93651;
	102	 2	 0.0	 0.0	 0.0	 0.0	 1	    1.01588	    0.00000	 63.0	 1	    1.07937	    0.95238;
	103	 1	 13.20	 -4.00	 0.0	 0.0	 1	    1.01588	    0.00000	 63.0	 1	    1.07937	    0.95238;
	104	 1	 0.0	 0.0	 0.0	 0.0	 1	    1.03778	    0.00000	 225.0	 1	    1.08889	    0.98667;
	105	 1	 28.50	 -1.60	 0.0	 0.0	 1	    0.98889	    0.00000	 225.0	 1	    1.08889	    0.88889;
	106	 1	 46.69	 2.20	 0.0	 0.0	 1	    1.02222	    0.00000	 90.0	 1	    1.10000	    0.94444;
	107	 1	 86.17	 4.90	 0.0	 0.0	 1	    1.04666	    0.00000	 225.0	 1	    1.08444	    1.00889;
	108	 1	 7.90	 -4.60	 0.0	 0.0	 1	    1.02778	    0.00000	 90.0	 1	    1.07778	    0.97778;
	109	 1	 72.93	 7.80	 0.0	 0.0	 1	    1.00000	    0.00000	 63.0	 1	    1.06349	    0.93651;
	110	 1	 0.0	 0.0	 0.0	 0.0	 1	    1.01111	    0.00000	 225.0	 1	    1.08889	    0.93333;
	111	 1	 34.20	 -7.20	 0.0	 0.0	 1	    1.01587	    0.00000	 63.0	 1	    1.06349	    0.96825;
	112	 1	 0.0	 0.0	 0.0	 0.0	 1	    1.00000	    0.00000	 63.0	 1	    1.04762	    0.95238;
	113	 1	 0.0	 0.0	 0.0	 0.0	 1	    1.04666	    0.00000	 225.0	 1	    1.08889	    1.00444;
	114	 1	 11.50	 -1.00	 0.0	 0.0	 1	    1.00000	    0.00000	 63.0	 1	    1.06349	    0.93651;
	115	 1	 0.0	 0.0	 0.0	 0.0	 1	    1.07805	    0.00000	 380.0	 1	    1.10526	    1.05085;
	116	 1	 0.0	 0.0	 0.0	 0.0	 1	    1.07805	    0.00000	 380.0	 1	    1.10526	    1.05085;
	117	 1	 13.20	 -2.20	 0.0	 0.0	 1	    1.01588	    0.00000	 63.0	 1	    1.07937	    0.95238;
	118	 1	 2.41	 0.80	 0.0	 0.0	 1	    1.02395	    0.00000	 90.0	 1	    1.07012	    0.97778;
	119	 1	 42.72	 0.70	 0.0	 0.0	 1	    1.00000	    0.00000	 63.0	 1	    1.06349	    0.93651;
	120	 1	 29.90	 -1.30	 0.0	 0.0	 1	    1.00000	    0.00000	 63.0	 1	    1.06349	    0.93651;
	121	 1	 18.41	 3.70	 0.0	 0.0	 1	    1.00000	    0.00000	 63.0	 1	    1.07937	    0.92063;
	122	 2	 0.0	 0.0	 0.0	 0.0	 1	    1.01588	    0.00000	 63.0	 1	    1.07937	    0.95238;
	123	 1	 10.83	 2.70	 0.0	 0.0	 1	    1.01588	    0.00000	 63.0	 1	    1.07937	    0.95238;
	124	 1	 8.90	 -4.00	 0.0	 0.0	 1	    1.02222	    0.00000	 90.0	 1	    1.06667	    0.97778;
	125	 1	 4.80	 -3.10	 0.0	 0.0	 1	    1.01588	    0.00000	 63.0	 1	    1.07937	    0.95238;
	126	 1	 -0.30	 0.50	 0.0	 0.0	 1	    1.00000	    0.00000	 63.0	 1	    1.06349	    0.93651;
	127	 1	 7.82	 0.40	 0.0	 0.0	 1	    1.00000	    0.00000	 63.0	 1	    1.04762	    0.95238;
	128	 1	 16.73	 5.60	 0.0	 0.0	 1	    1.01587	    0.00000	 63.0	 1	    1.06349	    0.96825;
	129	 1	 22.62	 14.30	 0.0	 0.0	 1	    1.01587	    0.00000	 63.0	 1	    1.06349	    0.96825;
	130	 1	 0.0	 0.0	 0.0	 0.0	 1	    1.04666	    0.00000	 225.0	 1	    1.08444	    1.00889;
	131	 1	 98.68	 2.00	 0.0	 0.0	 1	    1.04666	    0.00000	 225.0	 1	    1.08444	    1.00889;
	132	 2	 11.90	 0.00	 0.0	 0.0	 1	    1.00000	    0.00000	 90.0	 1	    1.07778	    0.92222;
	133	 1	 1.56	 0.30	 0.0	 0.0	 1	    1.00000	    0.00000	 63.0	 1	    1.04762	    0.95238;
	134	 1	 86.29	 15.70	 0.0	 0.0	 1	    1.04666	    0.00000	 225.0	 1	    1.08889	    1.00444;
	135	 1	 0.0	 0.0	 0.0	 0.0	 1	    1.04666	    0.00000	 225.0	 1	    1.08889	    1.00444;
	136	 1	 22.62	 2.30	 0.0	 0.0	 1	    1.02778	    0.00000	 90.0	 1	    1.07778	    0.97778;
	137	 2	 13.40	 -9.10	 0.0	 0.0	 1	    1.01587	    0.00000	 63.0	 1	    1.06349	    0.96825;
	138	 1	 0.0	 0.0	 0.0	 0.0	 1	    1.02333	    0.00000	 150.0	 1	    1.08000	    0.96667;
	139	 1	 8.60	 -1.00	 0.0	 0.0	 1	    1.00000	    0.00000	 63.0	 1	    1.07937	    0.92063;
	140	 1	 0.0	 0.0	 0.0	 0.0	 1	    1.04445	    0.00000	 225.0	 1	    1.08889	    1.00000;
	141	 1	 0.0	 0.0	 0.0	 0.0	 1	    1.07895	    0.00000	 380.0	 1	    1.10526	    1.05263;
	142	 1	 19.01	 1.30	 0.0	 0.0	 1	    1.01588	    0.00000	 63.0	 1	    1.07937	    0.95238;
	143	 1	 0.0	 0.0	 0.0	 0.0	 1	    1.03778	    0.00000	 225.0	 1	    1.08889	    0.98667;
	144	 1	 0.0	 0.0	 0.0	 -64.0	 1	    0.97500	    0.00000	 20.0	 1	    1.15000	    0.80000;
	145	 1	 25.51	 10.00	 0.0	 0.0	 1	    1.03333	    0.00000	 90.0	 1	    1.11111	    0.95556;
	146	 1	 30.81	 6.20	 0.0	 0.0	 1	    1.02889	    0.00000	 225.0	 1	    1.08889	    0.96889;
	147	 1	 0.0	 0.0	 0.0	 0.0	 1	    1.05263	    0.00000	 380.0	 1	    1.10526	    1.00000;
	148	 1	 30.09	 3.60	 0.0	 0.0	 1	    1.00000	    0.00000	 63.0	 1	    1.06349	    0.93651;
	149	 1	 7.58	 2.20	 0.0	 0.0	 1	    1.00000	    0.00000	 63.0	 1	    1.06349	    0.93651;
	150	 1	 21.54	 5.10	 0.0	 0.0	 1	    1.02222	    0.00000	 90.0	 1	    1.06667	    0.97778;
	151	 1	 50.42	 5.60	 0.0	 0.0	 1	    1.00000	    0.00000	 63.0	 1	    1.06349	    0.93651;
	152	 1	 0.0	 0.0	 0.0	 0.0	 1	    1.01587	    0.00000	 63.0	 1	    1.06349	    0.96825;
	153	 1	 41.16	 5.90	 0.0	 7.7	 1	    1.01587	    0.00000	 63.0	 1	    1.06349	    0.96825;
	154	 1	 24.55	 0.60	 0.0	 0.0	 1	    1.00000	    0.00000	 63.0	 1	    1.06349	    0.93651;
	155	 1	 0.0	 0.0	 0.0	 0.0	 1	    1.01111	    0.00000	 225.0	 1	    1.08889	    0.93333;
	156	 2	 0.0	 0.0	 0.0	 0.0	 1	    1.00000	    0.00000	 63.0	 1	    1.07937	    0.92063;
	157	 1	 0.0	 0.0	 0.0	 0.0	 1	    1.01587	    0.00000	 63.0	 1	    1.06349	    0.96825;
	158	 1	 -0.10	 -2.10	 0.0	 0.0	 1	    0.94444	    0.00000	 45.0	 1	    1.00000	    0.88889;
	159	 2	 0.0	 0.0	 0.0	 0.0	 1	    0.94444	    0.00000	 45.0	 1	    1.00000	    0.88889;
	160	 1	 0.0	 0.0	 0.0	 0.0	 1	    1.00000	    0.00000	 63.0	 1	    1.06349	    0.93651;
	161	 1	 35.50	 2.30	 0.0	 0.0	 1	    0.98889	    0.00000	 225.0	 1	    1.08889	    0.88889;
	162	 1	 37.91	 7.40	 0.0	 0.0	 1	    0.98889	    0.00000	 225.0	 1	    1.08889	    0.88889;
	163	 1	 0.40	 -1.60	 0.0	 0.0	 1	    1.02222	    0.00000	 90.0	 1	    1.06667	    0.97778;
	164	 1	 0.0	 0.0	 0.0	 0.0	 1	    1.01588	    0.00000	 63.0	 1	    1.07937	    0.95238;
	165	 1	 0.0	 0.0	 0.0	 0.0	 1	    1.01588	    0.00000	 63.0	 1	    1.07937	    0.95238;
	166	 1	 11.30	 -3.90	 0.0	 0.0	 1	    0.97500	    0.00000	 20.0	 1	    1.15000	    0.80000;
	167	 1	 6.98	 1.40	 0.0	 0.0	 1	    1.02222	    0.00000	 90.0	 1	    1.06667	    0.97778;
	168	 1	 7.80	 -0.90	 0.0	 0.0	 1	    1.02222	    0.00000	 90.0	 1	    1.06667	    0.97778;
	169	 1	 0.0	 0.0	 0.0	 0.0	 1	    1.04543	    0.00000	 225.0	 1	    1.08642	    1.00444;
	170	 1	 9.10	 -1.10	 0.0	 0.0	 1	    1.02222	    0.00000	 90.0	 1	    1.06667	    0.97778;
	171	 1	 72.21	 6.10	 0.0	 0.0	 1	    1.02778	    0.00000	 90.0	 1	    1.07778	    0.97778;
	172	 1	 21.40	 -1.80	 0.0	 0.0	 1	    1.02778	    0.00000	 90.0	 1	    1.07778	    0.97778;
	173	 1	 0.0	 0.0	 0.0	 0.0	 1	    1.04666	    0.00000	 225.0	 1	    1.08889	    1.00444;
	174	 1	 32.01	 6.60	 0.0	 0.0	 1	    1.01111	    0.00000	 90.0	 1	    1.08889	    0.93333;
	175	 1	 35.70	 -1.50	 0.0	 0.0	 1	    1.03333	    0.00000	 90.0	 1	    1.11111	    0.95556;
	176	 1	 0.0	 0.0	 0.0	 0.0	 1	    1.00000	    0.00000	 63.0	 1	    1.07937	    0.92063;
	177	 1	 0.0	 0.0	 0.0	 0.0	 1	    1.00000	    0.00000	 63.0	 1	    1.07937	    0.92063;
	178	 2	 0.0	 0.0	 0.0	 0.0	 1	    1.00000	    0.00000	 150.0	 1	    1.10000	    0.90000;
	179	 1	 0.0	 0.0	 0.0	 0.0	 1	    1.04666	    0.00000	 225.0	 1	    1.08889	    1.00444;
	180	 1	 0.0	 0.0	 0.0	 0.0	 1	    1.04666	    0.00000	 225.0	 1	    1.08889	    1.00444;
	181	 1	 0.0	 0.0	 0.0	 -32.0	 1	    0.97500	    0.00000	 20.0	 1	    1.15000	    0.80000;
	182	 1	 0.0	 0.0	 0.0	 -32.0	 1	    0.97500	    0.00000	 20.0	 1	    1.15000	    0.80000;
	183	 1	 0.0	 0.0	 0.0	 0.0	 1	    1.00000	    0.00000	 63.0	 1	    1.04762	    0.95238;
	184	 1	 0.0	 0.0	 0.0	 -80.0	 1	    1.04666	    0.00000	 225.0	 1	    1.08889	    1.00444;
	185	 1	 12.10	 -5.90	 0.0	 0.0	 1	    1.00000	    0.00000	 63.0	 1	    1.07937	    0.92063;
	186	 1	 19.26	 3.10	 0.0	 0.0	 1	    1.00000	    0.00000	 63.0	 1	    1.06349	    0.93651;
	187	 1	 6.50	 0.30	 0.0	 0.0	 1	    1.01588	    0.00000	 63.0	 1	    1.07937	    0.95238;
	188	 1	 3.61	 0.40	 0.0	 0.0	 1	    1.02778	    0.00000	 90.0	 1	    1.07778	    0.97778;
	189	 1	 26.36	 2.40	 0.0	 0.0	 1	    1.01588	    0.00000	 63.0	 1	    1.07937	    0.95238;
	190	 1	 1.40	 -0.70	 0.0	 0.0	 1	    1.02222	    0.00000	 90.0	 1	    1.06667	    0.97778;
	191	 2	 0.0	 0.0	 0.0	 0.0	 1	    1.00000	    0.00000	 63.0	 1	    1.07937	    0.92063;
	192	 1	 15.04	 1.10	 0.0	 0.0	 1	    1.00000	    0.00000	 63.0	 1	    1.07937	    0.92063;
	193	 2	 0.0	 0.0	 0.0	 0.0	 1	    0.94444	    0.00000	 45.0	 1	    1.00000	    0.88889;
	194	 1	 12.70	 -1.30	 0.0	 0.0	 1	    1.02222	    0.00000	 90.0	 1	    1.06667	    0.97778;
	195	 1	 7.30	 -1.40	 0.0	 0.0	 1	    1.00000	    0.00000	 63.0	 1	    1.07937	    0.92063;
	196	 1	 9.27	 5.30	 0.0	 0.0	 1	    1.04666	    0.00000	 225.0	 1	    1.08889	    1.00444;
	197	 2	 1.40	 -3.20	 0.0	 0.0	 1	    1.00000	    0.00000	 63.0	 1	    1.07937	    0.92063;
	198	 1	 0.0	 0.0	 0.0	 0.0	 1	    1.02491	    0.00000	 63.0	 1	    1.09743	    0.95238;
	199	 1	 0.0	 0.0	 0.0	 0.0	 1	    1.02491	    0.00000	 63.0	 1	    1.09743	    0.95238;
	200	 1	 25.00	 -4.90	 0.0	 0.0	 1	    1.00000	    0.00000	 63.0	 1	    1.07937	    0.92063;
...
];

%% generator data
%	bus	Pg	Qg	Qmax	Qmin	Vg	mBase	status	Pmax	Pmin	Pc1	Pc2	Qc1min	Qc1max	Qc2min	Qc2max	ramp_agc	ramp_10	ramp_30	ramp_q	apf
mpc.gen = [
	4	 14.0	 0.0	 14.0	 -14.0	 1.067	 100.0	 0	 28	 0.0	 0.0	 0.0	 0.0	 0.0	 0.0	 0.0	 0.0	 0.0	 0.0	 0.0	 0.0; % COW
	4	 8.0	 0.0	 8.0	 -8.0	 1.067	 100.0	 0	 16	 0.0	 0.0	 0.0	 0.0	 0.0	 0.0	 0.0	 0.0	 0.0	 0.0	 0.0	 0.0; % NG
	5	 6.5	 0.0	 7.0	 -7.0	 0.985	 100.0	 0	 13	 0.0	 0.0	 0.0	 0.0	 0.0	 0.0	 0.0	 0.0	 0.0	 0.0	 0.0	 0.0; % NG
	11	 15.0	 0.0	 15.0	 -15.0	 1.067	 100.0	 0	 30	 0.0	 0.0	 0.0	 0.0	 0.0	 0.0	 0.0	 0.0	 0.0	 0.0	 0.0	 0.0; % NG
	11	 8.0	 0.0	 8.0	 -8.0	 1.067	 100.0	 0	 16	 0.0	 0.0	 0.0	 0.0	 0.0	 0.0	 0.0	 0.0	 0.0	 0.0	 0.0	 0.0; % PEL
	17	 6.0	 0.0	 6.0	 -6.0	 1.055	 100.0	 0	 12	 0.0	 0.0	 0.0	 0.0	 0.0	 0.0	 0.0	 0.0	 0.0	 0.0	 0.0	 0.0; % COW
	19	 0.5	 0.0	 1.0	 -1.0	 1.03	 100.0	 0	 1	 0.0	 0.0	 0.0	 0.0	 0.0	 0.0	 0.0	 0.0	 0.0	 0.0	 0.0	 0.0; % PEL
	22	 5.5	 0.0	 6.0	 -6.0	 1.004	 100.0	 0	 11	 0.0	 0.0	 0.0	 0.0	 0.0	 0.0	 0.0	 0.0	 0.0	 0.0	 0.0	 0.0; % NG
	24	 10.5	 0.0	 11.0	 -11.0	 1.064	 100.0	 0	 21	 0.0	 0.0	 0.0	 0.0	 0.0	 0.0	 0.0	 0.0	 0.0	 0.0	 0.0	 0.0; % PEL
	24	 25.5	 0.0	 26.0	 -26.0	 1.064	 100.0	 0	 51	 0.0	 0.0	 0.0	 0.0	 0.0	 0.0	 0.0	 0.0	 0.0	 0.0	 0.0	 0.0; % PEL
	25	 22.5	 0.0	 23.0	 -23.0	 1.093	 100.0	 0	 45	 0.0	 0.0	 0.0	 0.0	 0.0	 0.0	 0.0	 0.0	 0.0	 0.0	 0.0	 0.0; % NG
	25	 8.5	 0.0	 9.0	 -9.0	 1.093	 100.0	 0	 17	 0.0	 0.0	 0.0	 0.0	 0.0	 0.0	 0.0	 0.0	 0.0	 0.0	 0.0	 0.0; % NG
	40	 5.0	 0.0	 5.0	 -5.0	 1.044	 100.0	 0	 10	 0.0	 0.0	 0.0	 0.0	 0.0	 0.0	 0.0	 0.0	 0.0	 0.0	 0.0	 0.0; % NG
	47	 7.0	 0.0	 9.5	 -9.5	 0.994	 100.0	 0	 14	 0.0	 0.0	 0.0	 0.0	 0.0	 0.0	 0.0	 0.0	 0.0	 0.0	 0.0	 0.0; % NG
	47	 19.0	 0.0	 19.0	 -19.0	 0.994	 100.0	 0	 38	 0.0	 0.0	 0.0	 0.0	 0.0	 0.0	 0.0	 0.0	 0.0	 0.0	 0.0	 0.0; % PEL
	48	 23.0	 0.0	 23.0	 -23.0	 1.052	 100.0	 0	 46	 0.0	 0.0	 0.0	 0.0	 0.0	 0.0	 0.0	 0.0	 0.0	 0.0	 0.0	 0.0; % PEL
	48	 23.5	 0.0	 24.0	 -24.0	 1.052	 100.0	 0	 47	 0.0	 0.0	 0.0	 0.0	 0.0	 0.0	 0.0	 0.0	 0.0	 0.0	 0.0	 0.0; % NG
	57	 71.0	 0.0	 71.0	 -71.0	 1.059	 100.0	 1	 142	 0.0	 0.0	 0.0	 0.0	 0.0	 0.0	 0.0	 0.0	 0.0	 0.0	 0.0	 0.0; % COW
	64	 13.5	 0.0	 14.0	 -14.0	 1.073	 100.0	 0	 27	 0.0	 0.0	 0.0	 0.0	 0.0	 0.0	 0.0	 0.0	 0.0	 0.0	 0.0	 0.0; % NG
	64	 13.5	 0.0	 14.0	 -14.0	 1.073	 100.0	 0	 27	 0.0	 0.0	 0.0	 0.0	 0.0	 0.0	 0.0	 0.0	 0.0	 0.0	 0.0	 0.0; % NG
	69	 58.0	 0.0	 58.0	 -58.0	 1.013	 100.0	 1	 116	 0.0	 0.0	 0.0	 0.0	 0.0	 0.0	 0.0	 0.0	 0.0	 0.0	 0.0	 0.0; % NG
	70	 24.0	 0.0	 24.0	 -24.0	 1.007	 100.0	 0	 48	 0.0	 0.0	 0.0	 0.0	 0.0	 0.0	 0.0	 0.0	 0.0	 0.0	 0.0	 0.0; % COW
	85	 5.5	 0.0	 6.0	 -6.0	 1.044	 100.0	 0	 11	 0.0	 0.0	 0.0	 0.0	 0.0	 0.0	 0.0	 0.0	 0.0	 0.0	 0.0	 0.0; % PEL
	86	 2.5	 0.0	 3.0	 -3.0	 1.018	 100.0	 0	 5	 0.0	 0.0	 0.0	 0.0	 0.0	 0.0	 0.0	 0.0	 0.0	 0.0	 0.0	 0.0; % NG
	102	 390.0	 0.0	 390.0	 -390.0	 1.02	 100.0	 1	 780	 0.0	 0.0	 0.0	 0.0	 0.0	 0.0	 0.0	 0.0	 0.0	 0.0	 0.0	 0.0; % NG
	122	 4.0	 0.5	 5.0	 -4.0	 1.01	 100.0	 0	 8	 0.0	 0.0	 0.0	 0.0	 0.0	 0.0	 0.0	 0.0	 0.0	 0.0	 0.0	 0.0; % NG
	124	 2.5	 0.0	 3.0	 -3.0	 1.05	 100.0	 0	 5	 0.0	 0.0	 0.0	 0.0	 0.0	 0.0	 0.0	 0.0	 0.0	 0.0	 0.0	 0.0; % COW
	125	 77.5	 0.0	 78.0	 -78.0	 1.027	 100.0	 1	 155	 0.0	 0.0	 0.0	 0.0	 0.0	 0.0	 0.0	 0.0	 0.0	 0.0	 0.0	 0.0; % PEL
	125	 5.5	 0.0	 6.0	 -6.0	 1.027	 100.0	 0	 11	 0.0	 0.0	 0.0	 0.0	 0.0	 0.0	 0.0	 0.0	 0.0	 0.0	 0.0	 0.0; % NG
	132	 18.5	 0.0	 19.0	 -19.0	 1.047	 100.0	 0	 37	 0.0	 0.0	 0.0	 0.0	 0.0	 0.0	 0.0	 0.0	 0.0	 0.0	 0.0	 0.0; % NG
	132	 2.0	 0.0	 2.0	 -2.0	 1.047	 100.0	 0	 4	 0.0	 0.0	 0.0	 0.0	 0.0	 0.0	 0.0	 0.0	 0.0	 0.0	 0.0	 0.0; % PEL
	132	 6.0	 0.0	 6.0	 -6.0	 1.047	 100.0	 0	 12	 0.0	 0.0	 0.0	 0.0	 0.0	 0.0	 0.0	 0.0	 0.0	 0.0	 0.0	 0.0; % COW
	132	 3.5	 0.0	 4.0	 -4.0	 1.047	 100.0	 0	 7	 0.0	 0.0	 0.0	 0.0	 0.0	 0.0	 0.0	 0.0	 0.0	 0.0	 0.0	 0.0; % NG
	137	 21.5	 0.0	 22.0	 -22.0	 1.007	 100.0	 0	 43	 0.0	 0.0	 0.0	 0.0	 0.0	 0.0	 0.0	 0.0	 0.0	 0.0	 0.0	 0.0; % NG
	137	 10.5	 0.0	 11.0	 -11.0	 1.007	 100.0	 0	 21	 0.0	 0.0	 0.0	 0.0	 0.0	 0.0	 0.0	 0.0	 0.0	 0.0	 0.0	 0.0; % PEL
	156	 4.5	 0.0	 5.0	 -5.0	 1.063	 100.0	 0	 9	 0.0	 0.0	 0.0	 0.0	 0.0	 0.0	 0.0	 0.0	 0.0	 0.0	 0.0	 0.0; % NG
	159	 17.0	 0.0	 17.0	 -17.0	 0.942	 100.0	 0	 34	 0.0	 0.0	 0.0	 0.0	 0.0	 0.0	 0.0	 0.0	 0.0	 0.0	 0.0	 0.0; % PEL
	159	 5.5	 -1.5	 10.0	 -13.0	 0.942	 100.0	 0	 11	 0.0	 0.0	 0.0	 0.0	 0.0	 0.0	 0.0	 0.0	 0.0	 0.0	 0.0	 0.0; % NG
	178	 33.5	 0.0	 34.0	 -34.0	 1.1	 100.0	 0	 67	 0.0	 0.0	 0.0	 0.0	 0.0	 0.0	 0.0	 0.0	 0.0	 0.0	 0.0	 0.0; % PEL
	191	 5.0	 0.0	 8.0	 -8.0	 1.075	 100.0	 0	 10	 0.0	 0.0	 0.0	 0.0	 0.0	 0.0	 0.0	 0.0	 0.0	 0.0	 0.0	 0.0; % NG
	191	 8.0	 0.0	 8.0	 -8.0	 1.075	 100.0	 0	 16	 0.0	 0.0	 0.0	 0.0	 0.0	 0.0	 0.0	 0.0	 0.0	 0.0	 0.0	 0.0; % NG
	193	 13.5	 0.0	 14.0	 -14.0	 0.922	 100.0	 0	 27	 0.0	 0.0	 0.0	 0.0	 0.0	 0.0	 0.0	 0.0	 0.0	 0.0	 0.0	 0.0; % NG
	195	 20.5	 0.0	 21.0	 -21.0	 1.058	 100.0	 0	 41	 0.0	 0.0	 0.0	 0.0	 0.0	 0.0	 0.0	 0.0	 0.0	 0.0	 0.0	 0.0; % NG
	197	 77.0	 0.0	 77.0	 -77.0	 1.071	 100.0	 1	 154	 0.0	 0.0	 0.0	 0.0	 0.0	 0.0	 0.0	 0.0	 0.0	 0.0	 0.0	 0.0; % NG
	197	 47.5	 0.0	 48.0	 -48.0	 1.071	 100.0	 1	 95	 0.0	 0.0	 0.0	 0.0	 0.0	 0.0	 0.0	 0.0	 0.0	 0.0	 0.0	 0.0; % COW
	220	 4.5	 0.0	 5.0	 -5.0	 1.02	 100.0	 0	 9	 0.0	 0.0	 0.0	 0.0	 0.0	 0.0	 0.0	 0.0	 0.0	 0.0	 0.0	 0.0; % COW
	227	 6.0	 0.0	 6.0	 -6.0	 1.1	 100.0	 0	 12	 0.0	 0.0	 0.0	 0.0	 0.0	 0.0	 0.0	 0.0	 0.0	 0.0	 0.0	 0.0; % NG
	230	 6.5	 0.0	 7.0	 -7.0	 0.991	 100.0	 0	 13	 0.0	 0.0	 0.0	 0.0	 0.0	 0.0	 0.0	 0.0	 0.0	 0.0	 0.0	 0.0; % PEL
	239	 31.5	 0.0	 32.0	 -32.0	 1.062	 100.0	 0	 63	 0.0	 0.0	 0.0	 0.0	 0.0	 0.0	 0.0	 0.0	 0.0	 0.0	 0.0	 0.0; % NG
	239	 14.5	 0.0	 15.0	 -15.0	 1.062	 100.0	 0	 29	 0.0	 0.0	 0.0	 0.0	 0.0	 0.0	 0.0	 0.0	 0.0	 0.0	 0.0	 0.0; % NG
	241	 7.0	 0.0	 7.0	 -7.0	 1.029	 100.0	 0	 14	 0.0	 0.0	 0.0	 0.0	 0.0	 0.0	 0.0	 0.0	 0.0	 0.0	 0.0	 0.0; % NG
	241	 20.5	 0.0	 21.0	 -21.0	 1.029	 100.0	 0	 41	 0.0	 0.0	 0.0	 0.0	 0.0	 0.0	 0.0	 0.0	 0.0	 0.0	 0.0	 0.0; % NG
	249	 1.0	 0.4	 2.0	 -1.2	 0.968	 100.0	 0	 2	 0.0	 0.0	 0.0	 0.0	 0.0	 0.0	 0.0	 0.0	 0.0	 0.0	 0.0	 0.0; % NG
	249	 27.5	 0.0	 28.0	 -28.0	 0.968	 100.0	 0	 55	 0.0	 0.0	 0.0	 0.0	 0.0	 0.0	 0.0	 0.0	 0.0	 0.0	 0.0	 0.0; % NG
	249	 15.0	 0.0	 15.0	 -15.0	 0.968	 100.0	 0	 30	 0.0	 0.0	 0.0	 0.0	 0.0	 0.0	 0.0	 0.0	 0.0	 0.0	 0.0	 0.0; % PEL
	249	 38.5	 0.0	 39.0	 -39.0	 0.968	 100.0	 0	 77	 0.0	 0.0	 0.0	 0.0	 0.0	 0.0	 0.0	 0.0	 0.0	 0.0	 0.0	 0.0; % PEL
	259	 9.0	 0.0	 10.0	 -10.0	 1.059	 100.0	 0	 18	 0.0	 0.0	 0.0	 0.0	 0.0	 0.0	 0.0	 0.0	 0.0	 0.0	 0.0	 0.0; % NG
	259	 6.5	 0.0	 10.0	 -10.0	 1.059	 100.0	 0	 13	 0.0	 0.0	 0.0	 0.0	 0.0	 0.0	 0.0	 0.0	 0.0	 0.0	 0.0	 0.0; % NG
	261	 36.5	 0.0	 37.0	 -37.0	 1.057	 100.0	 0	 73	 0.0	 0.0	 0.0	 0.0	 0.0	 0.0	 0.0	 0.0	 0.0	 0.0	 0.0	 0.0; % PEL
	264	 6.0	 0.0	 6.0	 -6.0	 1.078	 100.0	 0	 12	 0.0	 0.0	 0.0	 0.0	 0.0	 0.0	 0.0	 0.0	 0.0	 0.0	 0.0	 0.0; % NG
	272	 6.0	 0.0	 6.0	 -6.0	 1.03	 100.0	 0	 12	 0.0	 0.0	 0.0	 0.0	 0.0	 0.0	 0.0	 0.0	 0.0	 0.0	 0.0	 0.0; % NG
	285	 12.5	 0.0	 13.0	 -13.0	 0.968	 100.0	 0	 25	 0.0	 0.0	 0.0	 0.0	 0.0	 0.0	 0.0	 0.0	 0.0	 0.0	 0.0	 0.0; % NG
	298	 12.0	 0.0	 12.0	 -12.0	 1.071	 100.0	 0	 24	 0.0	 0.0	 0.0	 0.0	 0.0	 0.0	 0.0	 0.0	 0.0	 0.0	 0.0	 0.0; % PEL
	299	 9.5	 0.0	 10.0	 -10.0	 1.028	 100.0	 0	 19	 0.0	 0.0	 0.0	 0.0	 0.0	 0.0	 0.0	 0.0	 0.0	 0.0	 0.0	 0.0; % NG
	308	 6.5	 0.0	 9.0	 -9.0	 1.046	 100.0	 0	 13	 0.0	 0.0	 0.0	 0.0	 0.0	 0.0	 0.0	 0.0	 0.0	 0.0	 0.0	 0.0; % COW
	315	 54.0	 0.0	 54.0	 -54.0	 1.02	 100.0	 1	 108	 0.0	 0.0	 0.0	 0.0	 0.0	 0.0	 0.0	 0.0	 0.0	 0.0	 0.0	 0.0; % PEL
	315	 138.0	 0.0	 138.0	 -138.0	 1.02	 100.0	 1	 276	 0.0	 0.0	 0.0	 0.0	 0.0	 0.0	 0.0	 0.0	 0.0	 0.0	 0.0	 0.0; % NG
	320	 -3.5	 0.0	 0.0	 0.0	 1.059	 100.0	 0	 0	 -7.0	 0.0	 0.0	 0.0	 0.0	 0.0	 0.0	 0.0	 0.0	 0.0	 0.0	 0.0; % SYNC
	320	 -3.5	 0.0	 0.0	 0.0	 1.059	 100.0	 0	 0	 -7.0	 0.0	 0.0	 0.0	 0.0	 0.0	 0.0	 0.0	 0.0	 0.0	 0.0	 0.0; % SYNC
	322	 9.0	 0.0	 9.0	 -9.0	 1.056	 100.0	 0	 18	 0.0	 0.0	 0.0	 0.0	 0.0	 0.0	 0.0	 0.0	 0.0	 0.0	 0.0	 0.0; % NG
	328	 9.0	 0.0	 9.0	 -9.0	 1.036	 100.0	 0	 18	 0.0	 0.0	 0.0	 0.0	 0.0	 0.0	 0.0	 0.0	 0.0	 0.0	 0.0	 0.0; % NG
	335	 21.5	 0.0	 22.0	 -22.0	 1.036	 100.0	 0	 43	 0.0	 0.0	 0.0	 0.0	 0.0	 0.0	 0.0	 0.0	 0.0	 0.0	 0.0	 0.0; % PEL
	336	 30.5	 0.0	 31.0	 -31.0	 1.04	 100.0	 0	 61	 0.0	 0.0	 0.0	 0.0	 0.0	 0.0	 0.0	 0.0	 0.0	 0.0	 0.0	 0.0; % NG
	339	 11.0	 0.0	 11.0	 -11.0	 1.022	 100.0	 0	 22	 0.0	 0.0	 0.0	 0.0	 0.0	 0.0	 0.0	 0.0	 0.0	 0.0	 0.0	 0.0; % NG
	341	 24.0	 0.0	 24.0	 -24.0	 1.079	 100.0	 0	 48	 0.0	 0.0	 0.0	 0.0	 0.0	 0.0	 0.0	 0.0	 0.0	 0.0	 0.0	 0.0; % NG
	341	 1.0	 0.0	 1.0	 -1.0	 1.079	 100.0	 0	 2	 0.0	 0.0	 0.0	 0.0	 0.0	 0.0	 0.0	 0.0	 0.0	 0.0	 0.0	 0.0; % PEL
	348	 1.0	 0.0	 1.0	 -1.0	 1.056	 100.0	 0	 2	 0.0	 0.0	 0.0	 0.0	 0.0	 0.0	 0.0	 0.0	 0.0	 0.0	 0.0	 0.0; % PEL
	348	 55.0	 0.0	 55.0	 -55.0	 1.056	 100.0	 1	 110	 0.0	 0.0	 0.0	 0.0	 0.0	 0.0	 0.0	 0.0	 0.0	 0.0	 0.0	 0.0; % NG
	351	 10.5	 0.0	 11.0	 -11.0	 1.081	 100.0	 0	 21	 0.0	 0.0	 0.0	 0.0	 0.0	 0.0	 0.0	 0.0	 0.0	 0.0	 0.0	 0.0; % NG
	359	 25.0	 0.0	 30.0	 -30.0	 1.035	 100.0	 0	 50	 0.0	 0.0	 0.0	 0.0	 0.0	 0.0	 0.0	 0.0	 0.0	 0.0	 0.0	 0.0; % PEL
	360	 7.5	 0.0	 8.0	 -8.0	 0.988	 100.0	 0	 15	 0.0	 0.0	 0.0	 0.0	 0.0	 0.0	 0.0	 0.0	 0.0	 0.0	 0.0	 0.0; % NG
	360	 14.5	 0.0	 15.0	 -15.0	 0.988	 100.0	 0	 29	 0.0	 0.0	 0.0	 0.0	 0.0	 0.0	 0.0	 0.0	 0.0	 0.0	 0.0	 0.0; % NG
	367	 412.5	 0.0	 413.0	 -413.0	 1.072	 100.0	 1	 825	 0.0	 0.0	 0.0	 0.0	 0.0	 0.0	 0.0	 0.0	 0.0	 0.0	 0.0	 0.0; % NG
	394	 3.0	 0.0	 3.0	 -3.0	 1.031	 100.0	 0	 6	 0.0	 0.0	 0.0	 0.0	 0.0	 0.0	 0.0	 0.0	 0.0	 0.0	 0.0	 0.0; % PEL
	413	 4.0	 0.0	 4.0	 -4.0	 1.03	 100.0	 0	 8	 0.0	 0.0	 0.0	 0.0	 0.0	 0.0	 0.0	 0.0	 0.0	 0.0	 0.0	 0.0; % NG
	413	 4.5	 0.0	 5.0	 -5.0	 1.03	 100.0	 0	 9	 0.0	 0.0	 0.0	 0.0	 0.0	 0.0	 0.0	 0.0	 0.0	 0.0	 0.0	 0.0; % NG
	433	 13.0	 0.0	 13.0	 -13.0	 1.058	 100.0	 0	 26	 0.0	 0.0	 0.0	 0.0	 0.0	 0.0	 0.0	 0.0	 0.0	 0.0	 0.0	 0.0; % COW
	442	 38.0	 0.0	 38.0	 -38.0	 1.065	 100.0	 0	 76	 0.0	 0.0	 0.0	 0.0	 0.0	 0.0	 0.0	 0.0	 0.0	 0.0	 0.0	 0.0; % COW
	449	 7.0	 -0.5	 8.0	 -9.0	 0.994	 100.0	 0	 14	 0.0	 0.0	 0.0	 0.0	 0.0	 0.0	 0.0	 0.0	 0.0	 0.0	 0.0	 0.0; % PEL
	465	 2.5	 0.0	 3.0	 -3.0	 0.992	 100.0	 0	 5	 0.0	 0.0	 0.0	 0.0	 0.0	 0.0	 0.0	 0.0	 0.0	 0.0	 0.0	 0.0; % PEL
	465	 10.5	 0.0	 11.0	 -11.0	 0.992	 100.0	 0	 21	 0.0	 0.0	 0.0	 0.0	 0.0	 0.0	 0.0	 0.0	 0.0	 0.0	 0.0	 0.0; % NG
	467	 19.75	 0.0	 20.0	 -20.0	 1.17	 100.0	 1	 39	 0.5	 0.0	 0.0	 0.0	 0.0	 0.0	 0.0	 0.0	 0.0	 0.0	 0.0	 0.0; % NG
	467	 16.75	 0.0	 17.0	 -17.0	 1.17	 100.0	 1	 33	 0.5	 0.0	 0.0	 0.0	 0.0	 0.0	 0.0	 0.0	 0.0	 0.0	 0.0	 0.0; % PEL
	469	 199.25	 0.0	 199.0	 -199.0	 1.029	 100.0	 1	 398	 0.5	 0.0	 0.0	 0.0	 0.0	 0.0	 0.0	 0.0	 0.0	 0.0	 0.0	 0.0; % PEL
	473	 5.5	 0.0	 6.0	 -6.0	 1.02	 100.0	 0	 11	 0.0	 0.0	 0.0	 0.0	 0.0	 0.0	 0.0	 0.0	 0.0	 0.0	 0.0	 0.0; % NG
	473	 4.0	 0.0	 5.4	 -5.4	 1.02	 100.0	 0	 8	 0.0	 0.0	 0.0	 0.0	 0.0	 0.0	 0.0	 0.0	 0.0	 0.0	 0.0	 0.0; % NG
	482	 19.5	 0.0	 20.0	 -20.0	 0.975	 100.0	 0	 39	 0.0	 0.0	 0.0	 0.0	 0.0	 0.0	 0.0	 0.0	 0.0	 0.0	 0.0	 0.0; % NG
	482	 19.0	 0.0	 19.0	 -19.0	 0.975	 100.0	 0	 38	 0.0	 0.0	 0.0	 0.0	 0.0	 0.0	 0.0	 0.0	 0.0	 0.0	 0.0	 0.0; % NG
	482	 29.5	 0.0	 30.0	 -30.0	 0.975	 100.0	 0	 59	 0.0	 0.0	 0.0	 0.0	 0.0	 0.0	 0.0	 0.0	 0.0	 0.0	 0.0	 0.0; % NG
	494	 17.0	 0.0	 17.0	 -17.0	 1.049	 100.0	 0	 34	 0.0	 0.0	 0.0	 0.0	 0.0	 0.0	 0.0	 0.0	 0.0	 0.0	 0.0	 0.0; % NG
	511	 4.5	 0.0	 5.0	 -5.0	 1.008	 100.0	 0	 9	 0.0	 0.0	 0.0	 0.0	 0.0	 0.0	 0.0	 0.0	 0.0	 0.0	 0.0	 0.0; % NG
	520	 12.0	 0.0	 12.0	 -12.0	 1.03	 100.0	 0	 24	 0.0	 0.0	 0.0	 0.0	 0.0	 0.0	 0.0	 0.0	 0.0	 0.0	 0.0	 0.0; % NG
	521	 13.5	 0.0	 14.0	 -14.0	 1.04	 100.0	 0	 27	 0.0	 0.0	 0.0	 0.0	 0.0	 0.0	 0.0	 0.0	 0.0	 0.0	 0.0	 0.0; % NG
	531	 6.5	 0.0	 7.0	 -7.0	 1.001	 100.0	 0	 13	 0.0	 0.0	 0.0	 0.0	 0.0	 0.0	 0.0	 0.0	 0.0	 0.0	 0.0	 0.0; % NG
	531	 6.0	 0.0	 6.0	 -6.0	 1.001	 100.0	 0	 12	 0.0	 0.0	 0.0	 0.0	 0.0	 0.0	 0.0	 0.0	 0.0	 0.0	 0.0	 0.0; % PEL
	531	 8.0	 0.0	 8.0	 -8.0	 1.001	 100.0	 0	 16	 0.0	 0.0	 0.0	 0.0	 0.0	 0.0	 0.0	 0.0	 0.0	 0.0	 0.0	 0.0; % PEL
	537	 14.0	 0.0	 14.0	 -14.0	 1.026	 100.0	 0	 28	 0.0	 0.0	 0.0	 0.0	 0.0	 0.0	 0.0	 0.0	 0.0	 0.0	 0.0	 0.0; % NG
	537	 71.0	 0.0	 71.0	 -71.0	 1.026	 100.0	 1	 142	 0.0	 0.0	 0.0	 0.0	 0.0	 0.0	 0.0	 0.0	 0.0	 0.0	 0.0	 0.0; % PEL
	546	 18.0	 0.0	 18.0	 -18.0	 1.066	 100.0	 1	 36	 0.0	 0.0	 0.0	 0.0	 0.0	 0.0	 0.0	 0.0	 0.0	 0.0	 0.0	 0.0; % NG
	549	 5.0	 0.0	 5.0	 -5.0	 1.057	 100.0	 0	 10	 0.0	 0.0	 0.0	 0.0	 0.0	 0.0	 0.0	 0.0	 0.0	 0.0	 0.0	 0.0; % NG
	571	 5.0	 0.0	 5.0	 -5.0	 0.985	 100.0	 0	 10	 0.0	 0.0	 0.0	 0.0	 0.0	 0.0	 0.0	 0.0	 0.0	 0.0	 0.0	 0.0; % NG
	571	 58.0	 0.0	 58.0	 -58.0	 0.985	 100.0	 1	 116	 0.0	 0.0	 0.0	 0.0	 0.0	 0.0	 0.0	 0.0	 0.0	 0.0	 0.0	 0.0; % PEL
	571	 11.0	 0.0	 11.0	 -11.0	 0.985	 100.0	 0	 22	 0.0	 0.0	 0.0	 0.0	 0.0	 0.0	 0.0	 0.0	 0.0	 0.0	 0.0	 0.0; % NG
	584	 116.5	 0.0	 117.0	 -117.0	 1.035	 100.0	 1	 233	 0.0	 0.0	 0.0	 0.0	 0.0	 0.0	 0.0	 0.0	 0.0	 0.0	 0.0	 0.0; % NG
	586	 8.5	 0.0	 9.0	 -9.0	 0.981	 100.0	 0	 17	 0.0	 0.0	 0.0	 0.0	 0.0	 0.0	 0.0	 0.0	 0.0	 0.0	 0.0	 0.0; % NG
	587	 4.5	 0.0	 5.7	 -5.7	 0.997	 100.0	 0	 9	 0.0	 0.0	 0.0	 0.0	 0.0	 0.0	 0.0	 0.0	 0.0	 0.0	 0.0	 0.0; % NG
	590	 0.0	 0.0	 0.1	 -0.1	 1.037	 100.0	 0	 0	 0.0	 0.0	 0.0	 0.0	 0.0	 0.0	 0.0	 0.0	 0.0	 0.0	 0.0	 0.0; % PEL
	594	 25.0	 0.0	 25.0	 -25.0	 1.045	 100.0	 0	 50	 0.0	 0.0	 0.0	 0.0	 0.0	 0.0	 0.0	 0.0	 0.0	 0.0	 0.0	 0.0; % COW
	601	 3.5	 0.0	 4.0	 -4.0	 1.034	 100.0	 0	 7	 0.0	 0.0	 0.0	 0.0	 0.0	 0.0	 0.0	 0.0	 0.0	 0.0	 0.0	 0.0; % PEL
	611	 99.0	 0.0	 99.0	 -99.0	 1.022	 100.0	 1	 198	 0.0	 0.0	 0.0	 0.0	 0.0	 0.0	 0.0	 0.0	 0.0	 0.0	 0.0	 0.0; % NG
	611	 23.0	 0.0	 45.0	 -45.0	 1.022	 100.0	 0	 46	 0.0	 0.0	 0.0	 0.0	 0.0	 0.0	 0.0	 0.0	 0.0	 0.0	 0.0	 0.0; % NG
	613	 9.5	 0.0	 10.0	 -10.0	 1.017	 100.0	 0	 19	 0.0	 0.0	 0.0	 0.0	 0.0	 0.0	 0.0	 0.0	 0.0	 0.0	 0.0	 0.0; % NG
	613	 8.0	 0.0	 8.0	 -8.0	 1.017	 100.0	 0	 16	 0.0	 0.0	 0.0	 0.0	 0.0	 0.0	 0.0	 0.0	 0.0	 0.0	 0.0	 0.0; % COW
	613	 5.5	 0.0	 6.0	 -6.0	 1.017	 100.0	 0	 11	 0.0	 0.0	 0.0	 0.0	 0.0	 0.0	 0.0	 0.0	 0.0	 0.0	 0.0	 0.0; % COW
	614	 9.0	 0.0	 9.0	 -9.0	 1.03	 100.0	 0	 18	 0.0	 0.0	 0.0	 0.0	 0.0	 0.0	 0.0	 0.0	 0.0	 0.0	 0.0	 0.0; % PEL
	614	 9.0	 0.0	 9.0	 -9.0	 1.03	 100.0	 0	 18	 0.0	 0.0	 0.0	 0.0	 0.0	 0.0	 0.0	 0.0	 0.0	 0.0	 0.0	 0.0; % NG
	626	 263.35	 0.0	 268.0	 -268.0	 1.03	 100.0	 0	 535	 -8.3	 0.0	 0.0	 0.0	 0.0	 0.0	 0.0	 0.0	 0.0	 0.0	 0.0	 0.0; % COW
	635	 6.5	 0.0	 7.0	 -7.0	 1.031	 100.0	 0	 13	 0.0	 0.0	 0.0	 0.0	 0.0	 0.0	 0.0	 0.0	 0.0	 0.0	 0.0	 0.0; % COW
	638	 6.5	 0.0	 7.0	 -7.0	 1.013	 100.0	 0	 13	 0.0	 0.0	 0.0	 0.0	 0.0	 0.0	 0.0	 0.0	 0.0	 0.0	 0.0	 0.0; % COW
	638	 7.5	 0.0	 8.0	 -8.0	 1.013	 100.0	 0	 15	 0.0	 0.0	 0.0	 0.0	 0.0	 0.0	 0.0	 0.0	 0.0	 0.0	 0.0	 0.0; % PEL
	653	 7.0	 0.0	 7.0	 -7.0	 1.058	 100.0	 0	 14	 0.0	 0.0	 0.0	 0.0	 0.0	 0.0	 0.0	 0.0	 0.0	 0.0	 0.0	 0.0; % NG
	671	 5.5	 0.0	 6.0	 -6.0	 1.048	 100.0	 0	 11	 0.0	 0.0	 0.0	 0.0	 0.0	 0.0	 0.0	 0.0	 0.0	 0.0	 0.0	 0.0; % NG
	671	 12.5	 0.0	 13.0	 -13.0	 1.048	 100.0	 0	 25	 0.0	 0.0	 0.0	 0.0	 0.0	 0.0	 0.0	 0.0	 0.0	 0.0	 0.0	 0.0; % PEL
	672	 8.0	 0.0	 8.0	 -8.0	 1.049	 100.0	 0	 16	 0.0	 0.0	 0.0	 0.0	 0.0	 0.0	 0.0	 0.0	 0.0	 0.0	 0.0	 0.0; % NG
	672	 71.5	 0.0	 72.0	 -72.0	 1.049	 100.0	 1	 143	 0.0	 0.0	 0.0	 0.0	 0.0	 0.0	 0.0	 0.0	 0.0	 0.0	 0.0	 0.0; % PEL
	680	 5.5	 0.0	 6.0	 -6.0	 1.002	 100.0	 0	 11	 0.0	 0.0	 0.0	 0.0	 0.0	 0.0	 0.0	 0.0	 0.0	 0.0	 0.0	 0.0; % NG
	681	 8.0	 0.0	 8.0	 -8.0	 1.071	 100.0	 0	 16	 0.0	 0.0	 0.0	 0.0	 0.0	 0.0	 0.0	 0.0	 0.0	 0.0	 0.0	 0.0; % PEL
	685	 3.5	 0.5	 6.0	 -5.0	 0.89	 100.0	 0	 7	 0.0	 0.0	 0.0	 0.0	 0.0	 0.0	 0.0	 0.0	 0.0	 0.0	 0.0	 0.0; % NG
	685	 7.5	 0.0	 8.0	 -8.0	 0.89	 100.0	 0	 15	 0.0	 0.0	 0.0	 0.0	 0.0	 0.0	 0.0	 0.0	 0.0	 0.0	 0.0	 0.0; % NG
	685	 13.0	 0.0	 13.0	 -13.0	 0.89	 100.0	 0	 26	 0.0	 0.0	 0.0	 0.0	 0.0	 0.0	 0.0	 0.0	 0.0	 0.0	 0.0	 0.0; % PEL
	685	 10.5	 0.0	 11.0	 -11.0	 0.89	 100.0	 0	 21	 0.0	 0.0	 0.0	 0.0	 0.0	 0.0	 0.0	 0.0	 0.0	 0.0	 0.0	 0.0; % NG
	696	 192.0	 0.0	 192.0	 -192.0	 1.067	 100.0	 1	 384	 0.0	 0.0	 0.0	 0.0	 0.0	 0.0	 0.0	 0.0	 0.0	 0.0	 0.0	 0.0; % COW
	696	 6.0	 0.0	 6.0	 -6.0	 1.067	 100.0	 0	 12	 0.0	 0.0	 0.0	 0.0	 0.0	 0.0	 0.0	 0.0	 0.0	 0.0	 0.0	 0.0; % NG
	696	 24.0	 0.0	 24.0	 -24.0	 1.067	 100.0	 0	 48	 0.0	 0.0	 0.0	 0.0	 0.0	 0.0	 0.0	 0.0	 0.0	 0.0	 0.0	 0.0; % COW
	700	 91.0	 0.0	 91.0	 -91.0	 1.0	 100.0	 1	 182	 0.0	 0.0	 0.0	 0.0	 0.0	 0.0	 0.0	 0.0	 0.0	 0.0	 0.0	 0.0; % NG
	700	 57.5	 0.0	 58.0	 -58.0	 1.0	 100.0	 1	 115	 0.0	 0.0	 0.0	 0.0	 0.0	 0.0	 0.0	 0.0	 0.0	 0.0	 0.0	 0.0; % NG
	699	 28.0	 0.0	 28.0	 -28.0	 1.0	 100.0	 1	 56	 0.0	 0.0	 0.0	 0.0	 0.0	 0.0	 0.0	 0.0	 0.0	 0.0	 0.0	 0.0; % PEL
	699	 51.0	 0.0	 51.0	 -51.0	 1.0	 100.0	 1	 102	 0.0	 0.0	 0.0	 0.0	 0.0	 0.0	 0.0	 0.0	 0.0	 0.0	 0.0	 0.0; % COW
	698	 32.0	 0.0	 32.0	 -32.0	 1.004	 100.0	 1	 64	 0.0	 0.0	 0.0	 0.0	 0.0	 0.0	 0.0	 0.0	 0.0	 0.0	 0.0	 0.0; % COW
	698	 34.5	 0.0	 35.0	 -35.0	 1.004	 100.0	 1	 69	 0.0	 0.0	 0.0	 0.0	 0.0	 0.0	 0.0	 0.0	 0.0	 0.0	 0.0	 0.0; % NG
	706	 2.0	 0.0	 2.0	 -2.0	 0.891	 100.0	 0	 4	 0.0	 0.0	 0.0	 0.0	 0.0	 0.0	 0.0	 0.0	 0.0	 0.0	 0.0	 0.0; % NG
	706	 3.5	 0.0	 4.0	 -4.0	 0.891	 100.0	 0	 7	 0.0	 0.0	 0.0	 0.0	 0.0	 0.0	 0.0	 0.0	 0.0	 0.0	 0.0	 0.0; % NG
	706	 2.0	 0.0	 3.0	 -3.0	 0.891	 100.0	 0	 4	 0.0	 0.0	 0.0	 0.0	 0.0	 0.0	 0.0	 0.0	 0.0	 0.0	 0.0	 0.0; % NG
	706	 3.0	 0.5	 6.0	 -5.0	 0.891	 100.0	 0	 6	 0.0	 0.0	 0.0	 0.0	 0.0	 0.0	 0.0	 0.0	 0.0	 0.0	 0.0	 0.0; % NG
	733	 135.5	 0.0	 136.0	 -136.0	 1.023	 100.0	 1	 271	 0.0	 0.0	 0.0	 0.0	 0.0	 0.0	 0.0	 0.0	 0.0	 0.0	 0.0	 0.0; % COW
	734	 57.0	 0.0	 57.0	 -57.0	 0.939	 100.0	 1	 114	 0.0	 0.0	 0.0	 0.0	 0.0	 0.0	 0.0	 0.0	 0.0	 0.0	 0.0	 0.0; % NG
	735	 8.5	 0.0	 9.0	 -9.0	 1.002	 100.0	 0	 17	 0.0	 0.0	 0.0	 0.0	 0.0	 0.0	 0.0	 0.0	 0.0	 0.0	 0.0	 0.0; % NG
	735	 88.5	 0.0	 89.0	 -89.0	 1.002	 100.0	 1	 177	 0.0	 0.0	 0.0	 0.0	 0.0	 0.0	 0.0	 0.0	 0.0	 0.0	 0.0	 0.0; % NG
	737	 7.5	 0.0	 8.0	 -8.0	 1.064	 100.0	 0	 15	 0.0	 0.0	 0.0	 0.0	 0.0	 0.0	 0.0	 0.0	 0.0	 0.0	 0.0	 0.0; % NG
	737	 11.0	 0.0	 11.0	 -11.0	 1.064	 100.0	 0	 22	 0.0	 0.0	 0.0	 0.0	 0.0	 0.0	 0.0	 0.0	 0.0	 0.0	 0.0	 0.0; % NG
	738	 1.5	 0.0	 2.0	 -2.0	 1.049	 100.0	 0	 3	 0.0	 0.0	 0.0	 0.0	 0.0	 0.0	 0.0	 0.0	 0.0	 0.0	 0.0	 0.0; % COW
	745	 8.0	 0.0	 8.0	 -8.0	 0.946	 100.0	 0	 16	 0.0	 0.0	 0.0	 0.0	 0.0	 0.0	 0.0	 0.0	 0.0	 0.0	 0.0	 0.0; % NG
	745	 2.5	 1.0	 5.0	 -3.0	 0.946	 100.0	 0	 5	 0.0	 0.0	 0.0	 0.0	 0.0	 0.0	 0.0	 0.0	 0.0	 0.0	 0.0	 0.0; % NG
	746	 42.5	 0.0	 43.0	 -43.0	 0.938	 100.0	 1	 85	 0.0	 0.0	 0.0	 0.0	 0.0	 0.0	 0.0	 0.0	 0.0	 0.0	 0.0	 0.0; % PEL
	747	 92.75	 0.0	 93.0	 -93.0	 1.009	 100.0	 1	 185	 0.5	 0.0	 0.0	 0.0	 0.0	 0.0	 0.0	 0.0	 0.0	 0.0	 0.0	 0.0; % PEL
	752	 11.0	 0.0	 14.0	 -14.0	 0.967	 100.0	 0	 27	 -5.0	 0.0	 0.0	 0.0	 0.0	 0.0	 0.0	 0.0	 0.0	 0.0	 0.0	 0.0; % NG
	759	 27.5	 0.0	 28.0	 -28.0	 1.072	 100.0	 0	 55	 0.0	 0.0	 0.0	 0.0	 0.0	 0.0	 0.0	 0.0	 0.0	 0.0	 0.0	 0.0; % PEL
	761	 6.0	 0.0	 6.0	 -6.0	 1.036	 100.0	 0	 12	 0.0	 0.0	 0.0	 0.0	 0.0	 0.0	 0.0	 0.0	 0.0	 0.0	 0.0	 0.0; % NG
	762	 2.5	 0.0	 3.0	 -3.0	 1.034	 100.0	 0	 5	 0.0	 0.0	 0.0	 0.0	 0.0	 0.0	 0.0	 0.0	 0.0	 0.0	 0.0	 0.0; % PEL
	761	 61.5	 0.0	 62.0	 -62.0	 1.036	 100.0	 1	 123	 0.0	 0.0	 0.0	 0.0	 0.0	 0.0	 0.0	 0.0	 0.0	 0.0	 0.0	 0.0; % NG
	762	 86.0	 0.0	 86.0	 -86.0	 1.034	 100.0	 1	 172	 0.0	 0.0	 0.0	 0.0	 0.0	 0.0	 0.0	 0.0	 0.0	 0.0	 0.0	 0.0; % NG
	763	 0.5	 0.0	 1.0	 -1.0	 0.601	 100.0	 0	 1	 0.0	 0.0	 0.0	 0.0	 0.0	 0.0	 0.0	 0.0	 0.0	 0.0	 0.0	 0.0; % PEL
	763	 9.0	 0.0	 9.0	 -9.0	 0.601	 100.0	 0	 18	 0.0	 0.0	 0.0	 0.0	 0.0	 0.0	 0.0	 0.0	 0.0	 0.0	 0.0	 0.0; % NG
	763	 1.5	 0.0	 2.0	 -2.0	 0.601	 100.0	 0	 3	 0.0	 0.0	 0.0	 0.0	 0.0	 0.0	 0.0	 0.0	 0.0	 0.0	 0.0	 0.0; % PEL
	763	 1.0	 0.0	 1.0	 -1.0	 0.601	 100.0	 0	 2	 0.0	 0.0	 0.0	 0.0	 0.0	 0.0	 0.0	 0.0	 0.0	 0.0	 0.0	 0.0; % PEL
	767	 15.0	 0.0	 15.0	 -15.0	 1.018	 100.0	 0	 30	 0.0	 0.0	 0.0	 0.0	 0.0	 0.0	 0.0	 0.0	 0.0	 0.0	 0.0	 0.0; % NG
	767	 21.5	 0.0	 22.0	 -22.0	 1.018	 100.0	 0	 43	 0.0	 0.0	 0.0	 0.0	 0.0	 0.0	 0.0	 0.0	 0.0	 0.0	 0.0	 0.0; % PEL
	787	 9.0	 0.0	 26.0	 -26.0	 0.943	 100.0	 0	 18	 0.0	 0.0	 0.0	 0.0	 0.0	 0.0	 0.0	 0.0	 0.0	 0.0	 0.0	 0.0; % PEL
	787	 8.0	 0.0	 26.0	 -26.0	 0.943	 100.0	 0	 16	 0.0	 0.0	 0.0	 0.0	 0.0	 0.0	 0.0	 0.0	 0.0	 0.0	 0.0	 0.0; % COW
	788	 14.5	 0.0	 26.0	 -26.0	 0.97	 100.0	 0	 29	 0.0	 0.0	 0.0	 0.0	 0.0	 0.0	 0.0	 0.0	 0.0	 0.0	 0.0	 0.0; % NG
	802	 56.5	 0.0	 57.0	 -57.0	 1.001	 100.0	 1	 113	 0.0	 0.0	 0.0	 0.0	 0.0	 0.0	 0.0	 0.0	 0.0	 0.0	 0.0	 0.0; % NG
	802	 23.5	 0.0	 24.0	 -24.0	 1.001	 100.0	 1	 47	 0.0	 0.0	 0.0	 0.0	 0.0	 0.0	 0.0	 0.0	 0.0	 0.0	 0.0	 0.0; % PEL
	803	 111.5	 0.0	 112.0	 -112.0	 1.003	 100.0	 1	 223	 0.0	 0.0	 0.0	 0.0	 0.0	 0.0	 0.0	 0.0	 0.0	 0.0	 0.0	 0.0; % COW
	803	 26.5	 0.0	 27.0	 -27.0	 1.003	 100.0	 1	 53	 0.0	 0.0	 0.0	 0.0	 0.0	 0.0	 0.0	 0.0	 0.0	 0.0	 0.0	 0.0; % NG
	804	 32.0	 0.0	 32.0	 -32.0	 1.003	 100.0	 1	 64	 0.0	 0.0	 0.0	 0.0	 0.0	 0.0	 0.0	 0.0	 0.0	 0.0	 0.0	 0.0; % PEL
	804	 91.5	 0.0	 92.0	 -92.0	 1.003	 100.0	 1	 183	 0.0	 0.0	 0.0	 0.0	 0.0	 0.0	 0.0	 0.0	 0.0	 0.0	 0.0	 0.0; % PEL
	808	 41.5	 0.0	 42.0	 -42.0	 1.042	 100.0	 0	 83	 0.0	 0.0	 0.0	 0.0	 0.0	 0.0	 0.0	 0.0	 0.0	 0.0	 0.0	 0.0; % PEL
	816	 135.75	 0.0	 136.0	 -136.0	 1.021	 100.0	 1	 271	 0.5	 0.0	 0.0	 0.0	 0.0	 0.0	 0.0	 0.0	 0.0	 0.0	 0.0	 0.0; % NG
	816	 21.75	 0.0	 22.0	 -22.0	 1.021	 100.0	 0	 43	 0.5	 0.0	 0.0	 0.0	 0.0	 0.0	 0.0	 0.0	 0.0	 0.0	 0.0	 0.0; % PEL
	817	 79.25	 0.0	 79.0	 -79.0	 1.02	 100.0	 1	 158	 0.5	 0.0	 0.0	 0.0	 0.0	 0.0	 0.0	 0.0	 0.0	 0.0	 0.0	 0.0; % PEL
	817	 35.75	 0.0	 36.0	 -36.0	 1.02	 100.0	 1	 71	 0.5	 0.0	 0.0	 0.0	 0.0	 0.0	 0.0	 0.0	 0.0	 0.0	 0.0	 0.0; % PEL
	817	 49.75	 0.0	 50.0	 -50.0	 1.02	 100.0	 1	 99	 0.5	 0.0	 0.0	 0.0	 0.0	 0.0	 0.0	 0.0	 0.0	 0.0	 0.0	 0.0; % PEL
	817	 68.25	 0.0	 68.0	 -68.0	 1.02	 100.0	 1	 136	 0.5	 0.0	 0.0	 0.0	 0.0	 0.0	 0.0	 0.0	 0.0	 0.0	 0.0	 0.0; % NG
	827	 3.5	 0.0	 4.0	 -4.0	 1.058	 100.0	 0	 7	 0.0	 0.0	 0.0	 0.0	 0.0	 0.0	 0.0	 0.0	 0.0	 0.0	 0.0	 0.0; % COW
	827	 8.5	 0.0	 9.0	 -9.0	 1.058	 100.0	 0	 17	 0.0	 0.0	 0.0	 0.0	 0.0	 0.0	 0.0	 0.0	 0.0	 0.0	 0.0	 0.0; % NG
	830	 2.0	 0.0	 2.0	 -2.0	 1.079	 100.0	 0	 4	 0.0	 0.0	 0.0	 0.0	 0.0	 0.0	 0.0	 0.0	 0.0	 0.0	 0.0	 0.0; % PEL
	831	 29.5	 0.0	 30.0	 -30.0	 1.068	 100.0	 0	 59	 0.0	 0.0	 0.0	 0.0	 0.0	 0.0	 0.0	 0.0	 0.0	 0.0	 0.0	 0.0; % PEL
	832	 10.5	 0.0	 11.0	 -11.0	 0.937	 100.0	 0	 21	 0.0	 0.0	 0.0	 0.0	 0.0	 0.0	 0.0	 0.0	 0.0	 0.0	 0.0	 0.0; % NG
	834	 6.0	 0.0	 6.0	 -6.0	 1.063	 100.0	 0	 12	 0.0	 0.0	 0.0	 0.0	 0.0	 0.0	 0.0	 0.0	 0.0	 0.0	 0.0	 0.0; % NG
	834	 2.0	 0.0	 2.0	 -2.0	 1.063	 100.0	 0	 4	 0.0	 0.0	 0.0	 0.0	 0.0	 0.0	 0.0	 0.0	 0.0	 0.0	 0.0	 0.0; % PEL
...
];

%% generator cost data
%	2	startup	shutdown	n	c(n-1)	...	c0
mpc.gencost = [
	2	 0.0	 0.0	 3	   0.000000	  45.326166	   0.000000; % COW
	2	 0.0	 0.0	 3	   0.000000	  52.258679	   0.000000; % NG
	2	 0.0	 0.0	 3	   0.000000	  28.080407	   0.000000; % NG
	2	 0.0	 0.0	 3	   0.000000	  37.604391	   0.000000; % NG
	2	 0.0	 0.0	 3	   0.000000	  52.502097	   0.000000; % PEL
	2	 0.0	 0.0	 3	   0.000000	  17.680840	   0.000000; % COW
	2	 0.0	 0.0	 3	   0.000000	 154.978035	   0.000000; % PEL
	2	 0.0	 0.0	 3	   0.000000	  32.382647	   0.000000; % NG
	2	 0.0	 0.0	 3	   0.000000	  17.773228	   0.000000; % PEL
	2	 0.0	 0.0	 3	   0.000000	  55.252846	   0.000000; % PEL
	2	 0.0	 0.0	 3	   0.000000	  23.835794	   0.000000; % NG
	2	 0.0	 0.0	 3	   0.000000	  53.349140	   0.000000; % NG
	2	 0.0	 0.0	 3	   0.000000	  34.870603	   0.000000; % NG
	2	 0.0	 0.0	 3	   0.000000	 134.349963	   0.000000; % NG
	2	 0.0	 0.0	 3	   0.000000	 134.589919	   0.000000; % PEL
	2	 0.0	 0.0	 3	   0.000000	 160.596349	   0.000000; % PEL
	2	 0.0	 0.0	 3	   0.000000	 109.066624	   0.000000; % NG
	2	 0.0	 0.0	 3	   0.000000	  63.352826	   0.000000; % COW
	2	 0.0	 0.0	 3	   0.000000	 123.017826	   0.000000; % NG
	2	 0.0	 0.0	 3	   0.000000	 128.635051	   0.000000; % NG
	2	 0.0	 0.0	 3	   0.000000	  22.829619	   0.000000; % NG
	2	 0.0	 0.0	 3	   0.000000	  47.149353	   0.000000; % COW
	2	 0.0	 0.0	 3	   0.000000	 147.036671	   0.000000; % PEL
	2	 0.0	 0.0	 3	   0.000000	  38.075257	   0.000000; % NG
	2	 0.0	 0.0	 3	   0.000000	  63.528497	   0.000000; % NG
	2	 0.0	 0.0	 3	   0.000000	  23.490445	   0.000000; % NG
	2	 0.0	 0.0	 3	   0.000000	  39.278702	   0.000000; % COW
	2	 0.0	 0.0	 3	   0.000000	  48.617067	   0.000000; % PEL
	2	 0.0	 0.0	 3	   0.000000	  43.445239	   0.000000; % NG
	2	 0.0	 0.0	 3	   0.000000	 131.661916	   0.000000; % NG
	2	 0.0	 0.0	 3	   0.000000	 133.430994	   0.000000; % PEL
	2	 0.0	 0.0	 3	   0.000000	  54.005448	   0.000000; % COW
	2	 0.0	 0.0	 3	   0.000000	  15.747769	   0.000000; % NG
	2	 0.0	 0.0	 3	   0.000000	 114.474224	   0.000000; % NG
	2	 0.0	 0.0	 3	   0.000000	  45.680889	   0.000000; % PEL
	2	 0.0	 0.0	 3	   0.000000	  34.054057	   0.000000; % NG
	2	 0.0	 0.0	 3	   0.000000	 131.057320	   0.000000; % PEL
	2	 0.0	 0.0	 3	   0.000000	  36.228390	   0.000000; % NG
	2	 0.0	 0.0	 3	   0.000000	 120.093989	   0.000000; % PEL
	2	 0.0	 0.0	 3	   0.000000	  60.343638	   0.000000; % NG
	2	 0.0	 0.0	 3	   0.000000	  62.506960	   0.000000; % NG
	2	 0.0	 0.0	 3	   0.000000	 148.478520	   0.000000; % NG
	2	 0.0	 0.0	 3	   0.000000	  51.788608	   0.000000; % NG
	2	 0.0	 0.0	 3	   0.000000	  49.932376	   0.000000; % NG
	2	 0.0	 0.0	 3	   0.000000	  31.504268	   0.000000; % COW
	2	 0.0	 0.0	 3	   0.000000	  29.323128	   0.000000; % COW
	2	 0.0	 0.0	 3	   0.000000	  25.293096	   0.000000; % NG
	2	 0.0	 0.0	 3	   0.000000	 119.996694	   0.000000; % PEL
	2	 0.0	 0.0	 3	   0.000000	 118.107113	   0.000000; % NG
	2	 0.0	 0.0	 3	   0.000000	  39.732421	   0.000000; % NG
	2	 0.0	 0.0	 3	   0.000000	  41.796165	   0.000000; % NG
	2	 0.0	 0.0	 3	   0.000000	  63.232197	   0.000000; % NG
	2	 0.0	 0.0	 3	   0.000000	 145.133383	   0.000000; % NG
	2	 0.0	 0.0	 3	   0.000000	  33.980926	   0.000000; % NG
	2	 0.0	 0.0	 3	   0.000000	 127.519842	   0.000000; % PEL
	2	 0.0	 0.0	 3	   0.000000	  27.424715	   0.000000; % PEL
	2	 0.0	 0.0	 3	   0.000000	 123.863541	   0.000000; % NG
	2	 0.0	 0.0	 3	   0.000000	  36.482605	   0.000000; % NG
	2	 0.0	 0.0	 3	   0.000000	  11.149560	   0.000000; % PEL
	2	 0.0	 0.0	 3	   0.000000	  45.022599	   0.000000; % NG
	2	 0.0	 0.0	 3	   0.000000	  31.724570	   0.000000; % NG
	2	 0.0	 0.0	 3	   0.000000	  52.747810	   0.000000; % NG
	2	 0.0	 0.0	 3	   0.000000	 116.601214	   0.000000; % PEL
	2	 0.0	 0.0	 3	   0.000000	  38.387414	   0.000000; % NG
	2	 0.0	 0.0	 3	   0.000000	  41.501042	   0.000000; % COW
	2	 0.0	 0.0	 3	   0.000000	  41.145034	   0.000000; % PEL
	2	 0.0	 0.0	 3	   0.000000	  56.540771	   0.000000; % NG
	2	 0.0	 0.0	 3	   0.000000	   0.000000	   0.000000; % SYNC
	2	 0.0	 0.0	 3	   0.000000	   0.000000	   0.000000; % SYNC
	2	 0.0	 0.0	 3	   0.000000	 122.381519	   0.000000; % NG
	2	 0.0	 0.0	 3	   0.000000	  27.664139	   0.000000; % NG
	2	 0.0	 0.0	 3	   0.000000	  40.939067	   0.000000; % PEL
	2	 0.0	 0.0	 3	   0.000000	  47.631457	   0.000000; % NG
	2	 0.0	 0.0	 3	   0.000000	  51.206828	   0.000000; % NG
	2	 0.0	 0.0	 3	   0.000000	  44.555544	   0.000000; % NG
	2	 0.0	 0.0	 3	   0.000000	 121.193676	   0.000000; % PEL
	2	 0.0	 0.0	 3	   0.000000	 119.270074	   0.000000; % PEL
	2	 0.0	 0.0	 3	   0.000000	  54.743288	   0.000000; % NG
	2	 0.0	 0.0	 3	   0.000000	 122.943580	   0.000000; % NG
	2	 0.0	 0.0	 3	   0.000000	 145.799866	   0.000000; % PEL
	2	 0.0	 0.0	 3	   0.000000	  58.803148	   0.000000; % NG
	2	 0.0	 0.0	 3	   0.000000	  29.348648	   0.000000; % NG
	2	 0.0	 0.0	 3	   0.000000	  16.841222	   0.000000; % NG
	2	 0.0	 0.0	 3	   0.000000	 115.223600	   0.000000; % PEL
	2	 0.0	 0.0	 3	   0.000000	  59.950556	   0.000000; % NG
	2	 0.0	 0.0	 3	   0.000000	 147.991317	   0.000000; % NG
	2	 0.0	 0.0	 3	   0.000000	 135.434861	   0.000000; % COW
	2	 0.0	 0.0	 3	   0.000000	 142.247974	   0.000000; % COW
	2	 0.0	 0.0	 3	   0.000000	 145.895974	   0.000000; % PEL
	2	 0.0	 0.0	 3	   0.000000	 118.853226	   0.000000; % PEL
	2	 0.0	 0.0	 3	   0.000000	 146.152363	   0.000000; % NG
	2	 0.0	 0.0	 3	   0.000000	 148.362500	   0.000000; % NG
	2	 0.0	 0.0	 3	   0.000000	  31.100799	   0.000000; % PEL
	2	 0.0	 0.0	 3	   0.000000	  57.072578	   0.000000; % PEL
	2	 0.0	 0.0	 3	   0.000000	  15.663349	   0.000000; % NG
	2	 0.0	 0.0	 3	   0.000000	  49.818164	   0.000000; % NG
	2	 0.0	 0.0	 3	   0.000000	  42.740591	   0.000000; % NG
	2	 0.0	 0.0	 3	   0.000000	  46.275078	   0.000000; % NG
	2	 0.0	 0.0	 3	   0.000000	  55.148847	   0.000000; % NG
	2	 0.0	 0.0	 3	   0.000000	 126.810576	   0.000000; % NG
	2	 0.0	 0.0	 3	   0.000000	  38.622274	   0.000000; % NG
	2	 0.0	 0.0	 3	   0.000000	  52.141058	   0.000000; % NG
	2	 0.0	 0.0	 3	   0.000000	  32.117135	   0.000000; % NG
	2	 0.0	 0.0	 3	   0.000000	 112.980427	   0.000000; % NG
	2	 0.0	 0.0	 3	   0.000000	 126.203871	   0.000000; % PEL
	2	 0.0	 0.0	 3	   0.000000	  24.497988	   0.000000; % PEL
	2	 0.0	 0.0	 3	   0.000000	  34.289833	   0.000000; % NG
	2	 0.0	 0.0	 3	   0.000000	 154.957545	   0.000000; % PEL
	2	 0.0	 0.0	 3	   0.000000	  52.896299	   0.000000; % NG
	2	 0.0	 0.0	 3	   0.000000	 138.945663	   0.000000; % NG
	2	 0.0	 0.0	 3	   0.000000	  52.366064	   0.000000; % NG
	2	 0.0	 0.0	 3	   0.000000	  46.096340	   0.000000; % PEL
	2	 0.0	 0.0	 3	   0.000000	  40.803927	   0.000000; % NG
	2	 0.0	 0.0	 3	   0.000000	  23.846108	   0.000000; % NG
	2	 0.0	 0.0	 3	   0.000000	  49.280553	   0.000000; % NG
	2	 0.0	 0.0	 3	   0.000000	  38.457707	   0.000000; % NG
	2	 0.0	 0.0	 3	   0.000000	  48.355960	   0.000000; % PEL
	2	 0.0	 0.0	 3	   0.000000	 154.081803	   0.000000; % COW
	2	 0.0	 0.0	 3	   0.000000	  31.969286	   0.000000; % PEL
	2	 0.0	 0.0	 3	   0.000000	  34.454738	   0.000000; % NG
	2	 0.0	 0.0	 3	   0.000000	  49.056555	   0.000000; % NG
	2	 0.0	 0.0	 3	   0.000000	  18.397972	   0.000000; % NG
	2	 0.0	 0.0	 3	   0.000000	  62.022271	   0.000000; % COW
	2	 0.0	 0.0	 3	   0.000000	  40.518960	   0.000000; % COW
	2	 0.0	 0.0	 3	   0.000000	 142.171667	   0.000000; % PEL
	2	 0.0	 0.0	 3	   0.000000	  51.011264	   0.000000; % NG
	2	 0.0	 0.0	 3	   0.000000	  36.410218	   0.000000; % COW
	2	 0.0	 0.0	 3	   0.000000	  53.205289	   0.000000; % COW
	2	 0.0	 0.0	 3	   0.000000	  22.187869	   0.000000; % COW
	2	 0.0	 0.0	 3	   0.000000	  50.024955	   0.000000; % PEL
	2	 0.0	 0.0	 3	   0.000000	 133.681417	   0.000000; % NG
	2	 0.0	 0.0	 3	   0.000000	  40.473200	   0.000000; % NG
	2	 0.0	 0.0	 3	   0.000000	  44.071562	   0.000000; % PEL
	2	 0.0	 0.0	 3	   0.000000	  25.208611	   0.000000; % NG
	2	 0.0	 0.0	 3	   0.000000	 133.847046	   0.000000; % PEL
	2	 0.0	 0.0	 3	   0.000000	  17.118426	   0.000000; % NG
	2	 0.0	 0.0	 3	   0.000000	  39.539415	   0.000000; % PEL
	2	 0.0	 0.0	 3	   0.000000	  14.155218	   0.000000; % NG
	2	 0.0	 0.0	 3	   0.000000	  49.432702	   0.000000; % NG
	2	 0.0	 0.0	 3	   0.000000	  49.910683	   0.000000; % PEL
	2	 0.0	 0.0	 3	   0.000000	  43.680411	   0.000000; % NG
	2	 0.0	 0.0	 3	   0.000000	 142.202873	   0.000000; % COW
	2	 0.0	 0.0	 3	   0.000000	  53.467941	   0.000000; % NG
	2	 0.0	 0.0	 3	   0.000000	  43.008911	   0.000000; % COW
	2	 0.0	 0.0	 3	   0.000000	  61.256253	   0.000000; % NG
	2	 0.0	 0.0	 3	   0.000000	  58.048980	   0.000000; % NG
	2	 0.0	 0.0	 3	   0.000000	  38.576667	   0.000000; % PEL
	2	 0.0	 0.0	 3	   0.000000	  39.456117	   0.000000; % COW
	2	 0.0	 0.0	 3	   0.000000	  41.726749	   0.000000; % COW
	2	 0.0	 0.0	 3	   0.000000	  46.800497	   0.000000; % NG
	2	 0.0	 0.0	 3	   0.000000	 108.847189	   0.000000; % NG
	2	 0.0	 0.0	 3	   0.000000	 141.640803	   0.000000; % NG
	2	 0.0	 0.0	 3	   0.000000	  49.289383	   0.000000; % NG
	2	 0.0	 0.0	 3	   0.000000	  44.260447	   0.000000; % NG
	2	 0.0	 0.0	 3	   0.000000	  45.496060	   0.000000; % COW
	2	 0.0	 0.0	 3	   0.000000	 147.418387	   0.000000; % NG
	2	 0.0	 0.0	 3	   0.000000	  38.079658	   0.000000; % NG
	2	 0.0	 0.0	 3	   0.000000	  54.374732	   0.000000; % NG
	2	 0.0	 0.0	 3	   0.000000	  20.584707	   0.000000; % NG
	2	 0.0	 0.0	 3	   0.000000	 117.779256	   0.000000; % NG
	2	 0.0	 0.0	 3	   0.000000	  21.213913	   0.000000; % COW
	2	 0.0	 0.0	 3	   0.000000	  52.988335	   0.000000; % NG
	2	 0.0	 0.0	 3	   0.000000	  40.055020	   0.000000; % NG
	2	 0.0	 0.0	 3	   0.000000	  34.450097	   0.000000; % PEL
	2	 0.0	 0.0	 3	   0.000000	 128.080478	   0.000000; % PEL
	2	 0.0	 0.0	 3	   0.000000	  51.347893	   0.000000; % NG
	2	 0.0	 0.0	 3	   0.000000	 122.405049	   0.000000; % PEL
	2	 0.0	 0.0	 3	   0.000000	  12.392349	   0.000000; % NG
	2	 0.0	 0.0	 3	   0.000000	  65.378512	   0.000000; % PEL
	2	 0.0	 0.0	 3	   0.000000	  41.858044	   0.000000; % NG
	2	 0.0	 0.0	 3	   0.000000	  36.512112	   0.000000; % NG
	2	 0.0	 0.0	 3	   0.000000	 144.741277	   0.000000; % PEL
	2	 0.0	 0.0	 3	   0.000000	  35.499879	   0.000000; % NG
	2	 0.0	 0.0	 3	   0.000000	 135.769039	   0.000000; % PEL
	2	 0.0	 0.0	 3	   0.000000	  48.014847	   0.000000; % PEL
	2	 0.0	 0.0	 3	   0.000000	  53.871501	   0.000000; % NG
	2	 0.0	 0.0	 3	   0.000000	  47.905348	   0.000000; % PEL
	2	 0.0	 0.0	 3	   0.000000	  25.921676	   0.000000; % PEL
	2	 0.0	 0.0	 3	   0.000000	  23.214686	   0.000000; % COW
	2	 0.0	 0.0	 3	   0.000000	  36.437180	   0.000000; % NG
	2	 0.0	 0.0	 3	   0.000000	 129.949204	   0.000000; % NG
	2	 0.0	 0.0	 3	   0.000000	  14.343042	   0.000000; % PEL
	2	 0.0	 0.0	 3	   0.000000	  29.027049	   0.000000; % COW
	2	 0.0	 0.0	 3	   0.000000	  35.774483	   0.000000; % NG
	2	 0.0	 0.0	 3	   0.000000	  49.310634	   0.000000; % PEL
	2	 0.0	 0.0	 3	   0.000000	  62.039434	   0.000000; % PEL
	2	 0.0	 0.0	 3	   0.000000	  36.921514	   0.000000; % PEL
	2	 0.0	 0.0	 3	   0.000000	  32.827959	   0.000000; % NG
	2	 0.0	 0.0	 3	   0.000000	  68.789725	   0.000000; % PEL
	2	 0.0	 0.0	 3	   0.000000	 132.669847	   0.000000; % PEL
	2	 0.0	 0.0	 3	   0.000000	  42.184063	   0.000000; % PEL
	2	 0.0	 0.0	 3	   0.000000	  32.693890	   0.000000; % PEL
	2	 0.0	 0.0	 3	   0.000000	  20.026175	   0.000000; % NG
	2	 0.0	 0.0	 3	   0.000000	  36.057793	   0.000000; % COW
	2	 0.0	 0.0	 3	   0.000000	  32.653910	   0.000000; % NG
	2	 0.0	 0.0	 3	   0.000000	 151.040793	   0.000000; % PEL
	2	 0.0	 0.0	 3	   0.000000	 148.420253	   0.000000; % PEL
	2	 0.0	 0.0	 3	   0.000000	  40.259727	   0.000000; % NG
	2	 0.0	 0.0	 3	   0.000000	 123.407017	   0.000000; % NG
	2	 0.0	 0.0	 3	   0.000000	  37.022079	   0.000000; % PEL
...
];

%% branch data
%	fbus	tbus	r	x	b	rateA	rateB	rateC	ratio	angle	status	angmin	angmax
mpc.branch = [
	4667	 1	 0.005726	 0.010482	 0.0	 2186.0	 2186.0	 2186.0	 0.0	 0.0	 1	 -30.0	 30.0;
	5273	 1	 0.01284	 0.025679	 0.0	 910.0	 910.0	 910.0	 0.0	 0.0	 1	 -30.0	 30.0;
	1689	 2	 0.005799	 0.010615	 0.0075	 2441.0	 2441.0	 2441.0	 0.0	 0.0	 1	 -30.0	 30.0;
	1680	 3	 0.134039	 0.309398	 0.0035	 91.0	 91.0	 91.0	 0.0	 0.0	 1	 -30.0	 30.0;
	2311	 3	 0.049131	 0.133283	 0.0015	 215.0	 215.0	 215.0	 0.0	 0.0	 1	 -30.0	 30.0;
	696	 4	 0.025926	 0.109136	 0.0002	 281.0	 281.0	 281.0	 0.0	 0.0	 1	 -30.0	 30.0;
	3961	 4	 0.05	 0.126914	 0.0006	 226.0	 226.0	 226.0	 0.0	 0.0	 1	 -30.0	 30.0;
	5073	 4	 0.02321	 0.097407	 0.0016	 315.0	 315.0	 315.0	 0.0	 0.0	 1	 -30.0	 30.0;
	4437	 5	 0.040564	 0.113631	 0.0013	 245.0	 245.0	 245.0	 0.0	 0.0	 1	 -30.0	 30.0;
	2789	 6	 0.006047	 0.020912	 0.0222	 1398.0	 1398.0	 1398.0	 0.0	 0.0	 1	 -30.0	 30.0;
	2790	 7	 0.012472	 0.032099	 0.0061	 884.0	 884.0	 884.0	 0.0	 0.0	 1	 -30.0	 30.0;
	2477	 8	 0.002607	 0.017462	 0.0324	 540.0	 540.0	 540.0	 0.0	 0.0	 1	 -30.0	 30.0;
	473	 9	 0.053893	 0.14258	 0.0017	 194.0	 194.0	 194.0	 0.0	 0.0	 1	 -30.0	 30.0;
	11	 10	 0.000247	 0.001235	 0.0005	 24078.0	 24078.0	 24078.0	 0.0	 0.0	 1	 -30.0	 30.0;
	11	 10	 0.000247	 0.001235	 0.0002	 24078.0	 24078.0	 24078.0	 0.0	 0.0	 1	 -30.0	 30.0;
	30	 11	 0.039753	 0.100988	 0.0047	 284.0	 284.0	 284.0	 0.0	 0.0	 1	 -30.0	 30.0;
	2945	 11	 0.037654	 0.096173	 0.001	 294.0	 294.0	 294.0	 0.0	 0.0	 1	 -30.0	 30.0;
	2189	 12	 0.014613	 0.060721	 0.0008	 487.0	 487.0	 487.0	 0.0	 0.0	 1	 -30.0	 30.0;
	4039	 12	 0.034064	 0.121139	 0.0015	 242.0	 242.0	 242.0	 0.0	 0.0	 1	 -30.0	 30.0;
	4041	 12	 0.000242	 0.000442	 0.0004	 60355.0	 60355.0	 60355.0	 0.0	 0.0	 1	 -30.0	 30.0;
	115	 13	 2.1e-05	 0.000125	 0.1386	 737.0	 737.0	 737.0	 0.0	 0.0	 1	 -30.0	 30.0;
	2345	 13	 0.000145	 0.001877	 0.0635	 2487.0	 2487.0	 2487.0	 0.0	 0.0	 1	 -30.0	 30.0;
	4597	 13	 0.000319	 0.003234	 0.0838	 1841.0	 1841.0	 1841.0	 0.0	 0.0	 1	 -30.0	 30.0;
	116	 13	 2.1e-05	 0.000125	 0.1386	 737.0	 737.0	 737.0	 0.0	 0.0	 1	 -30.0	 30.0;
	1229	 14	 0.04	 0.134198	 0.0274	 217.0	 217.0	 217.0	 0.0	 0.0	 1	 -30.0	 30.0;
	2887	 14	 0.012222	 0.052346	 0.0026	 565.0	 565.0	 565.0	 0.0	 0.0	 1	 -30.0	 30.0;
	4615	 14	 0.007284	 0.045432	 0.0024	 660.0	 660.0	 660.0	 0.0	 0.0	 1	 -30.0	 30.0;
	4976	 14	 0.059963	 0.154222	 0.0236	 184.0	 184.0	 184.0	 0.0	 0.0	 1	 -30.0	 30.0;
	5259	 14	 0.018025	 0.110988	 0.0073	 270.0	 270.0	 270.0	 0.0	 0.0	 1	 -30.0	 30.0;
	2887	 14	 0.012222	 0.052593	 0.0032	 562.0	 562.0	 562.0	 0.0	 0.0	 1	 -30.0	 30.0;
	4615	 14	 0.007284	 0.044938	 0.0024	 667.0	 667.0	 667.0	 0.0	 0.0	 1	 -30.0	 30.0;
	2921	 15	 0.037541	 0.100529	 0.0011	 284.0	 284.0	 284.0	 0.0	 0.0	 1	 -30.0	 30.0;
	4150	 15	 0.090199	 0.211388	 0.0023	 133.0	 133.0	 133.0	 0.0	 0.0	 1	 -30.0	 30.0;
	4477	 15	 0.09801	 0.267574	 0.0	 107.0	 107.0	 107.0	 0.0	 0.0	 1	 -30.0	 30.0;
	252	 16	 0.071806	 0.191484	 0.0019	 149.0	 149.0	 149.0	 0.0	 0.0	 1	 -30.0	 30.0;
	340	 16	 0.119174	 0.284958	 0.0044	 99.0	 99.0	 99.0	 0.0	 0.0	 1	 -30.0	 30.0;
	5865	 17	 0.022346	 0.061111	 0.0029	 457.0	 457.0	 457.0	 0.0	 0.0	 1	 -30.0	 30.0;
	3747	 18	 0.009383	 0.019753	 0.0	 1194.0	 1194.0	 1194.0	 0.0	 0.0	 1	 -30.0	 30.0;
	5121	 19	 0.000252	 0.000504	 0.0	 52398.0	 52398.0	 52398.0	 0.0	 0.0	 1	 -30.0	 30.0;
	3747	 20	 0.001975	 0.004444	 0.0	 5369.0	 5369.0	 5369.0	 0.0	 0.0	 1	 -30.0	 30.0;
	1359	 21	 0.036296	 0.099012	 0.0045	 282.0	 282.0	 282.0	 0.0	 0.0	 1	 -30.0	 30.0;
	1605	 21	 0.032716	 0.089136	 0.0057	 313.0	 313.0	 313.0	 0.0	 0.0	 1	 -30.0	 30.0;
	1849	 22	 0.138574	 0.351474	 0.0058	 81.0	 81.0	 81.0	 0.0	 0.0	 1	 -30.0	 30.0;
	5050	 22	 0.094407	 0.210456	 0.0044	 132.0	 132.0	 132.0	 0.0	 0.0	 1	 -30.0	 30.0;
	1161	 23	 0.047115	 0.117158	 0.001	 234.0	 234.0	 234.0	 0.0	 0.0	 1	 -30.0	 30.0;
	2713	 23	 0.039557	 0.120937	 0.0132	 233.0	 233.0	 233.0	 0.0	 0.0	 1	 -30.0	 30.0;
	3443	 23	 0.022676	 0.062484	 0.0007	 445.0	 445.0	 445.0	 0.0	 0.0	 1	 -30.0	 30.0;
	145	 24	 0.064568	 0.16716	 0.0113	 180.0	 180.0	 180.0	 0.0	 0.0	 1	 -30.0	 30.0;
	1287	 24	 0.048605	 0.128481	 0.0062	 235.0	 235.0	 235.0	 0.0	 0.0	 1	 -30.0	 30.0;
	493	 25	 0.004815	 0.02963	 0.0016	 1049.0	 1049.0	 1049.0	 0.0	 0.0	 1	 -30.0	 30.0;
	2101	 25	 0.007309	 0.04463	 0.0073	 710.0	 710.0	 710.0	 0.0	 0.0	 1	 -30.0	 30.0;
	613	 26	 0.034321	 0.145802	 0.0073	 199.0	 199.0	 199.0	 0.0	 0.0	 1	 -30.0	 30.0;
	1872	 26	 0.004815	 0.009753	 0.0005	 2731.0	 2731.0	 2731.0	 0.0	 0.0	 1	 -30.0	 30.0;
	2613	 26	 0.049012	 0.133704	 0.0063	 209.0	 209.0	 209.0	 0.0	 0.0	 1	 -30.0	 30.0;
	2938	 26	 0.04642	 0.126543	 0.0058	 221.0	 221.0	 221.0	 0.0	 0.0	 1	 -30.0	 30.0;
	3357	 26	 0.046296	 0.125926	 0.006	 222.0	 222.0	 222.0	 0.0	 0.0	 1	 -30.0	 30.0;
	4652	 26	 0.053704	 0.136753	 0.0065	 203.0	 203.0	 203.0	 0.0	 0.0	 1	 -30.0	 30.0;
	2938	 26	 0.03358	 0.120988	 0.0062	 237.0	 237.0	 237.0	 0.0	 0.0	 1	 -30.0	 30.0;
	536	 27	 0.006163	 0.041067	 0.0759	 446.0	 446.0	 446.0	 0.0	 0.0	 1	 -30.0	 30.0;
	2358	 27	 0.000652	 0.004369	 0.0081	 558.0	 558.0	 558.0	 0.0	 0.0	 1	 -30.0	 30.0;
	2694	 28	 0.050945	 0.131922	 0.0015	 216.0	 216.0	 216.0	 0.0	 0.0	 1	 -30.0	 30.0;
	3913	 28	 0.058781	 0.149005	 0.0017	 190.0	 190.0	 190.0	 0.0	 0.0	 1	 -30.0	 30.0;
	2900	 29	 0.067019	 0.137566	 0.0037	 193.0	 193.0	 193.0	 0.0	 0.0	 1	 -30.0	 30.0;
	3339	 29	 0.032754	 0.088939	 0.0039	 312.0	 312.0	 312.0	 0.0	 0.0	 1	 -30.0	 30.0;
	3339	 29	 0.030184	 0.080096	 0.0053	 345.0	 345.0	 345.0	 0.0	 0.0	 1	 -30.0	 30.0;
	145	 30	 0.066049	 0.187778	 0.0099	 161.0	 161.0	 161.0	 0.0	 0.0	 1	 -30.0	 30.0;
	1559	 30	 0.065062	 0.133704	 0.0062	 212.0	 212.0	 212.0	 0.0	 0.0	 1	 -30.0	 30.0;
	4861	 30	 0.041728	 0.106049	 0.005	 281.0	 281.0	 281.0	 0.0	 0.0	 1	 -30.0	 30.0;
	151	 31	 0.009574	 0.03875	 0.0114	 740.0	 740.0	 740.0	 0.0	 0.0	 1	 -30.0	 30.0;
	3180	 31	 0.000171	 0.000313	 0.0002	 82782.0	 82782.0	 82782.0	 0.0	 0.0	 1	 -30.0	 30.0;
...